<?xml version="1.0" encoding="UTF-8"?>

			<configuration xmlns:xsi="http://www.w3.org/2001/XMLSchema-instance" xsi:noNamespaceSchemaLocation="http://sumo.dlr.de/xsd/sumoConfiguration.xsd">

			    <input>
				<net-file value="/home/israel.vasconcelos@laccan.net/maps/sp_bbox_4.net.xml"/>
				<route-files value="/home/israel.vasconcelos@laccan.net/maps/osm_pt_4_5.rou.xml,/home/israel.vasconcelos@laccan.net/maps/osm_bbox_4_5_0.05.passenger.trips.xml,/home/israel.vasconcelos@laccan.net/maps/osm_bbox_4_5.bus.trips.xml"/>
				<additional-files value="/home/israel.vasconcelos@laccan.net/maps/osm_stops_4.add.xml"/>
			    </input>

			    <processing>
				<ignore-route-errors value="true"/>
			    </processing>

			    <routing>
				<device.rerouting.adaptation-steps value="180"/>
			    </routing>

			    <report>
				<verbose value="true"/>
				<duration-log.statistics value="true"/>
				<no-step-log value="true"/>
			    </report>

			    <gui_only>
				<start value="false"/>
			    </gui_only>

			</configuration>
