<?xml version="1.0" encoding="UTF-8"?>
<!-- generated on 2020-11-22 16:16:51.064723 by $Id: ptlines2flows.py v1_3_1+0313-ccb31df3eb jakob.erdmann@dlr.de 2019-09-02 13:26:32 +0200 $ v1_7_0+0890-63ce6de543
  options: -n saopaulo.net.xml -s busstops.xml -l ptlines.xml -o buslines.rou.xml -p 600 <doubleminus>use-osm-routes
-->
<routes xmlns:xsi="http://www.w3.org/2001/XMLSchema-instance" xsi:noNamespaceSchemaLocation="http://sumo.dlr.de/xsd/routes_file.xsd">
    <vType id="bus" vClass="bus" key="has.fcd.device" value="true"/>
    <vType id="tram" vClass="tram"/>
    <vType id="train" vClass="rail"/>
    <vType id="subway" vClass="rail_urban"/>
    <vType id="light_rail" vClass="rail_urban"/>
    <vType id="monorail" vClass="rail"/>
    <vType id="trolleybus" vClass="bus"/>
    <vType id="aerialway" vClass="bus"/>
    <vType id="ferry" vClass="ship"/>
    <route id="bus_T25:0" edges="93997238#0 93997238#1 93997238#2 93997238#3 93997238#4 93997238#5 93997238#6 93997238#7 -237521935#4 -237521935#3 -237521935#2 -237521935#1 -237521935#0" >
        <stop busStop="6992430971" duration="30.00" until="31.0"/> <!-- None -->
        <stop busStop="6992430973" duration="30.00" until="90.0"/> <!-- None -->
        <stop busStop="6992430974" duration="30.00" until="146.0"/> <!-- None -->
        <stop busStop="-6992430975" duration="30.00" until="206.0"/> <!-- None -->
    </route>
    <route id="train_10:0" edges="218651915 218801092#0 218801092#1 218801092#2" >
        <stop busStop="2278811014" duration="30.00" until="146.0"/> <!-- None -->
        <stop busStop="2280117742" duration="30.00" until="292.0"/> <!-- None -->
        <stop busStop="2281353272" duration="30.00" until="501.0"/> <!-- None -->
    </route>
    <route id="train_10:1" edges="27017560 218801097#0 218801097#1 218801097#2" >
        <stop busStop="656349268" duration="30.00" until="132.0"/> <!-- None -->
        <stop busStop="656351141" duration="30.00" until="341.0"/> <!-- None -->
        <stop busStop="2278811013" duration="30.00" until="486.0"/> <!-- None -->
        <stop busStop="656353782" duration="30.00" until="649.0"/> <!-- None -->
    </route>
    <flow id="bus_T25:0" type="bus" route="bus_T25:0" begin="0.0" end="3600.0" period="600" line="T25:0" >
        <param key="name" value="Ônibus T25: UniABC =&gt; Vila Suíça"/>
        <param key="completeness" value="0.11"/>
    </flow>
    <flow id="train_10:0" type="train" route="train_10:0" begin="0.0" end="3600.0" period="600" line="10:0" >
        <param key="name" value="Linha 10 - Turquesa: Rio Grande da Serra ⇒ Brás"/>
        <param key="completeness" value="0.27"/>
    </flow>
    <flow id="train_10:1" type="train" route="train_10:1" begin="0.0" end="3600.0" period="600" line="10:1" >
        <param key="name" value="Linha 10 - Turquesa: Brás ⇒ Rio Grande da Serra"/>
        <param key="completeness" value="0.36"/>
    </flow>
</routes>
