<?xml version="1.0" encoding="UTF-8"?>

<!-- generated on Wed Nov 18 18:04:36 2020 by Eclipse SUMO duarouter Version v1_7_0+0890-63ce6de543
<configuration xmlns:xsi="http://www.w3.org/2001/XMLSchema-instance" xsi:noNamespaceSchemaLocation="http://sumo.dlr.de/xsd/duarouterConfiguration.xsd">

    <input>
        <net-file value="saopaulo.net.xml"/>
        <route-files value="saopaulo_bus.trips.xml"/>
    </input>

    <output>
        <output-file value="saopaulo_bus.rou.xml"/>
        <alternatives-output value="saopaulo_bus.rou.alt.xml"/>
    </output>

    <report>
        <ignore-errors value="true"/>
    </report>

</configuration>
-->

<routes xmlns:xsi="http://www.w3.org/2001/XMLSchema-instance" xsi:noNamespaceSchemaLocation="http://sumo.dlr.de/xsd/routes_file.xsd">
    <vType id="bus_bus" vClass="bus"/>
    <vehicle id="bus0" type="bus_bus" depart="0.00">
        <route edges="130777424 -127072498#2 127069568 127069577#3 127069577#4 127069577#5 127072470#3 373086966#4 373086966#5 373086966#6 130777425#0 130777425#1 127062183 764194635#0 764194635#1 764194635#2 127077807 130785109#0 130785109#1 130785109#2 130785109#3 130785109#4 130785109#5 130785109#6 764194631#0 764194631#1 764194631#2 764194631#3 764194631#4 764194631#5 764194626 764194625#0 764194625#1 438021252 127086388#1 -438472650#1 -438472650#0 -438474854 -438473111 -438473456 -438473606#1 -438473606#0 -134834985#4 -134834985#3 -134834985#2 -134834985#1 -134834985#0 -438474205#2 -438474205#1 -438474205#0 134834983 130661470#0 130661470#1 130661470#2 130661470#3 130661470#4 126748439#1 126748439#2 126748439#3 -126748437#4 126783833#0 -126783833#0"/>
    </vehicle>
    <vehicle id="bus1" type="bus_bus" depart="1.00">
        <route edges="-93997228#3 -93997228#2 -93997228#1 -93997233#5 -93997233#4 -93997233#3 -93997233#2 94003585#7 298831553#2 298831553#3 298831553#4 -298831553#4"/>
    </vehicle>
    <vehicle id="bus2" type="bus_bus" depart="2.00">
        <route edges="300715135#1 93997238#3 93997238#4 93997238#5 747293340 93995206#0 93995206#1 93995206#2 93995206#3 93995206#4 747282959 93995209#0 93995209#1 747282960#0 747282960#1 93995207#0 93995207#1 747282961#0 747282961#1 747282961#2 747282961#3 258250060#8 300715137#0 300715137#1 396906185#0 396906185#1 396906185#2 277426866#0 277426866#1 277426866#2 277426866#3 277426866#4 277426866#5 277426866#6 764194616#0 764194616#1 396906182#0 396906182#1 127419732#10 127419732#11 127419732#12 300725070#0 300725070#1 130660357#0 -151534248#2 -151534248#1 151534275#1"/>
    </vehicle>
    <vehicle id="bus3" type="bus_bus" depart="3.00">
        <route edges="759041159#0 -759041159#0 -432967930#1 -432967930#0 432968046 432968048#1 94016871 127419743#0 127419743#1 127419743#2 -127419747#5 -127419747#4 -127419747#3 -127419747#2 -127419747#1 -127419747#0 387612245#8 649754795 380300255#0 380300255#1 380300255#2 380300255#3 380300255#4 127086388#0 127086388#1 127086374#0 127086374#1 438914452#0 438914452#1 127086396 -127086380#0 -127077801#1"/>
    </vehicle>
    <vehicle id="bus4" type="bus_bus" depart="4.00">
        <route edges="126937635 -126937635 764254539#1 126820825#0 126820825#1 126820825#2 438473457#0 438473457#1 438473457#2 -438473606#1 -438473606#0 -134834985#4 -134834985#3 -134834985#2 -134834985#1 -134834985#0 -438474205#2 -438474205#1 -438474205#0 134834983 130661470#0 130661470#1 300724989#1 300724989#2 300724989#3 -126786489#6 -126786489#5 -126786489#4 -126786489#3 -126786489#2"/>
    </vehicle>
    <vehicle id="bus5" type="bus_bus" depart="5.00">
        <route edges="-373086966#1 373086966#1 373086966#2 373086966#3 373086966#4 373086966#5 373086966#6 130777425#0 130777425#1 127062183 764194635#0 764194635#1 764194635#2 127077807 130785109#0 130785109#1 130785109#2 130785109#3 130785109#4 130785109#5 130785109#6 764194631#0 764194631#1 764194631#2 764194631#3 764194631#4 764194631#5 764194626 127216226 438021250#0 457326567 127963203#1 127963203#2 127963203#3 -380300255#4 -380300255#3 -380300255#2 127216227#0 127216227#1"/>
    </vehicle>
    <vehicle id="bus6" type="bus_bus" depart="6.00">
        <route edges="-126786470 126786470 126786476#6 126786476#7 126786476#8 126786476#9 126786476#10 853185397#1 456860530#0 456860530#1 456860530#2 277426863#0 277426863#1 277426863#2 134834985#0 134834985#1 134834985#2 134834985#3 134834985#4 127734295#0 127734295#1 127734295#2 127734295#3 127734295#4 130662522#6 130662522#7 764254542#0 126794876#0 126794876#1 126794876#2 126794876#3 126794876#4 126794876#5 126794876#6 283835867#4 283835867#5 283835867#6 126794896#0 126794896#1 126794896#2 126794896#3 167086624 167086650#0 -167086650#0"/>
    </vehicle>
    <vehicle id="bus7" type="bus_bus" depart="7.00">
        <route edges="130785115#3 130785115#4 126820818#4 126820818#5 764194628#4 764194628#5 764194628#6 439069106#0 439069106#1 438472651#0 438472651#1 438472651#2 438472651#3 438472651#4 438472651#5 277373184 -127955323#2 -127955323#1 -127955323#0 -127419718#10 -127419718#9 -127419718#8 -127419718#7 -127419718#6 -127419718#5 -127419718#4 -127419718#3 277378101#1 127394435#2"/>
    </vehicle>
    <vehicle id="bus8" type="bus_bus" depart="8.00">
        <route edges="-377630727#4 377630727#4 377630727#5 377630727#6 377630727#7 377630727#8 377630727#9 428821067#3 428821067#4 428821067#5 836355748#0 836355748#1 836355747#2 836355746 836355747#0 130662521#0 130662521#1 130662521#2 130662521#3 130662521#4 130662521#5 130662516#13 126748459 126795957 438474205#0 438474205#1 438474205#2 134834985#0 134834985#1 134834985#2 134834985#3 134834985#4 438473606#0 438473606#1 438473456 438473111 438474854 -438474854 126937638 127674085#0 127674085#1"/>
    </vehicle>
    <vehicle id="bus9" type="bus_bus" depart="9.00">
        <route edges="438472651#4 438472651#5 277373184 -127955323#2 -127955323#1 -127955323#0 -127419718#10 -127419718#9 -127419718#8 -127419718#7 -127419718#6 -127419718#5 -127419718#4 -127419718#3 -127419718#2 -127419718#1 -127419718#0 764194621 127394434#0 127394434#1 127394434#2 127394434#3 -396906182#2 127419732#10 127419732#11 127419732#12 300725071#0 300725071#1 300725071#2 300725071#3 853192634 856195715#0 127260839 127947935#0 127947935#1 127947935#2 127947935#3 127947935#4 127947952 704206323 170053647 435864862#0 435864862#1 435864862#2 435864862#3 435864862#4 435864862#5 435864862#6 -27017001#1 -27017001#0 27016999#0 27016999#1 127966368 27016995 704206322 27016992 704206321 759236600#14 759236600#15 606167756#0 606167756#1 606167756#2 -111663898#1 111663936#1 111663936#2 111663936#3 -111663938#0"/>
    </vehicle>
    <vehicle id="bus10" type="bus_bus" depart="10.00">
        <route edges="435864862#4 -435864862#4 -435864862#3 -435864862#2 -435864862#1 -435864862#0 -170053647 -704206323 -127947952 649723677#0 649723677#1 649723677#2 649723677#3 649723677#4 649723677#5 649723677#6 649723677#7 649723677#8 649723679 168230202#0 168230203#0 151534282#1 168230201#0 168230201#1 151534281#0 151534281#1 151534240#3 151534240#4 168230205#0"/>
    </vehicle>
    <vehicle id="bus11" type="bus_bus" depart="11.00">
        <route edges="126163252 -126158516#1 -126158516#0 126158499 130662516#2 130662516#3 130662516#4 130662516#5 130662516#6 130662516#7 130662516#8 130662516#9 130662516#10 130662516#11 -127671041#10 -127671041#9 -127671041#8 -127671041#7 -127671041#6 -127671041#5 -127671041#4"/>
    </vehicle>
    <vehicle id="bus12" type="bus_bus" depart="12.00">
        <route edges="94003572#0 94003572#1 94003572#2 94003572#3 94003572#4 94003572#5 300719465#0 300719465#1 300719465#2 300719465#3 300719465#4 300719465#5 300719465#6 300719465#7 237521935#1 237521935#2 237521935#3 237521935#4 93995204 93995206#0 93995206#1 93995206#2 93995206#3 93995206#4 747282959 93995209#0 93995209#1 747282960#0 747282960#1 93995207#0 93995207#1 747282961#0 747282961#1 747282961#2 747282961#3 258250060#8 300715137#0 300715137#1 396906185#0 396906185#1 396906185#2 396906185#3 396906185#4 396906185#5 396906185#6 396906185#7 396906185#8 127947952 704206323 170053647 435864862#0 435864862#1 435864862#2 435864862#3 435864862#4 435864862#5 435864862#6 -27017001#1 -27017001#0 27016999#0 27016999#1 127966368 27016995 704206322 27016992 704206321 759236600#14 759236600#15 606167756#0 606167756#1 606167756#2 -111663898#1 111663936#1 111663936#2 111663936#3 111663936#4 111663936#5 111663936#6"/>
    </vehicle>
    <vehicle id="bus13" type="bus_bus" depart="13.00">
        <route edges="-127086393#5 127216218#0 127216218#1 -130795054#4 -130795054#3 -130795054#2 -130795054#1 -130795054#0 -127088219#0"/>
    </vehicle>
    <vehicle id="bus14" type="bus_bus" depart="14.00">
        <route edges="642883023#1 100223011#0 100223011#1 100223011#2 100223011#3 764254565#0 764254565#1 194730486#1 194730486#2 194730486#3 194730486#4 194730486#5 194730486#6 194730486#7 194730486#8 194730486#9 194730486#10 194730486#11 194730486#12 194730486#13 194730486#14 194730486#15 194730486#16 194730486#17 194730486#18 194730486#19 194730486#20 194730486#21 194730486#22 194730486#23 194730486#24 649723675 649723678#0 649723678#1 127260823#0 127260823#1 457964212#0 457964212#1 457964212#2 457964212#3 457964212#4 127947944#0 127947944#1"/>
    </vehicle>
    <vehicle id="bus15" type="bus_bus" depart="15.00">
        <route edges="438021250#0 -438021250#0 438021251 438021252 127086388#1 -438472650#1 -438472650#0 438472651#0 438472651#1 438472651#2 438472651#3 438472651#4 438472651#5 852644056 387612245#12 387612245#13 387612245#14 387612245#15 387612245#16 387612245#17 387612245#18 387612245#19 387612245#20 387612245#21 277378096#0 277378096#1 277378096#2 287600622#7 287600622#8 287600622#9 287600622#10 287600622#11"/>
    </vehicle>
    <vehicle id="bus16" type="bus_bus" depart="16.00">
        <route edges="127419721#0 127429165#2 127429165#3 127419742#0 127419742#1 127419742#2 127429168 94016883 410262159 719026950#0 719026950#1 719026950#2 719026952#0 719026952#1 759041159#0 759041159#1 94003595#13 94003606"/>
    </vehicle>
    <vehicle id="bus17" type="bus_bus" depart="17.00">
        <route edges="126786489#3 126786489#4 126786489#5 126786489#6 126748437#9 126748437#10 126748437#11 439083815 764254551 126786473 456860533 456860530#0 456860530#1 456860530#2 277426863#0 277426863#1 277426863#2 134834985#0 134834985#1 134834985#2 134834985#3 134834985#4 438473606#0 438473606#1 438473456 438473111 438474854 438472650#0 -438472650#0 438472651#0 438472651#1 438472651#2 438472651#3 438472651#4 438472651#5 277373184 -127955323#2 -127955323#1 -127955323#0 764194623#0 764194623#1 764194623#2 764194623#3 764194623#4 127216224#5 127216224#6 127419726#0"/>
    </vehicle>
    <vehicle id="bus18" type="bus_bus" depart="18.00">
        <route edges="457964229#0 457964229#1 127947935#0 127947935#1 127947935#2 127947935#3 127947935#4 127947952 704206323 170053647 435864862#0 435864862#1 435864862#2 435864862#3 435864862#4 435864862#5 435864862#6 170053649#0 170053649#1 706082728#2 706082728#3 706082728#4 706082728#5 706082728#6 706082728#7 706082728#8 706082728#9 127966376"/>
    </vehicle>
    <vehicle id="bus19" type="bus_bus" depart="19.00">
        <route edges="69421407#2 166769343#0 -367528545 100223013#1 100223013#2 100223013#3 100223013#4 100223013#5 100223013#6 100223013#7 127559278#1 69421407#0 127559296"/>
    </vehicle>
    <vehicle id="bus21" type="bus_bus" depart="21.00">
        <route edges="-387044689 -126987275#3 -126987275#2 130785114 764194628#0 764194628#1 764194628#2 764194628#3 764194628#4 764194628#5 764194628#6 439069106#0 439069106#1 438472651#0 438472651#1 438472651#2 438472651#3 438472651#4 438472651#5 277373184 -127955323#2 -127955323#1 -127955323#0 764194623#0 764194623#1 764194623#2 764194623#3 764194623#4 -127216224#4 127429168 94016883 410262159 719026950#0 719026950#1 719026950#2 719026952#0 719026952#1 94003572#0 94003572#1 94003572#2 94003572#3 94003572#4 94003572#5 300719465#0 300719465#1 300719465#2 300719465#3 300719465#4 300719465#5 300719465#6 300719465#7 237521935#1 237521935#2 237521935#3 237521935#4 93995204 93995206#0 724451274 -93995202"/>
    </vehicle>
    <vehicle id="bus22" type="bus_bus" depart="22.00">
        <route edges="-127077791 127077791 130785109#1 130785109#2 130785109#3 130785109#4 130785109#5 130785109#6 764194631#0 764194631#1 764194631#2 764194631#3 764194631#4 764194631#5 764194626 127216226 438021250#0 457326567 127963203#1 127963203#2 127963203#3 -380300255#4 -380300255#3 -380300255#2 -380300255#1 -380300255#0 287600622#17 852397310 127419747#0 127419747#1 127419747#2 127419747#3 127419747#4 127419742#2 127429168 94016883 410262159 -432968048#1 -432968048#0 -313159264#3"/>
    </vehicle>
    <vehicle id="bus23" type="bus_bus" depart="23.00">
        <route edges="-127216227#0 380300255#2 380300255#3 380300255#4 127086388#0 127086388#1 127086388#2 127086388#3 127086388#4 127086388#5 127086388#6 127086388#7 127086388#8 127086391 127086378#0 127086378#1 127086378#2 127086378#3 127086378#4 127086378#5 127086378#6 127086378#7 127086378#8 127086378#9 127086378#10 858024337 126987277#0 126987277#1 126987277#2 457580783#3 457580783#4 134834989#0 134834989#1 -764254532#1"/>
    </vehicle>
    <vehicle id="bus24" type="bus_bus" depart="24.00">
        <route edges="130662521#0 130662521#1 -130662518#0 -126748432#2 -126748432#1 -126748432#0 126748432#0"/>
    </vehicle>
    <vehicle id="bus25" type="bus_bus" depart="25.00">
        <route edges="126783833#3 126783833#4 126783833#5 -126783829#2 -126783829#1 -126783829#0 127665404#3 151534285#0 126158485#13 126158485#14 126158485#15 127419729#3 151534275#0 151534275#1 151534275#2 856195714#0 856195714#1 856195715#0 127260839 127947935#0 127947935#1 127947935#2 127947935#3 127947935#4 127947952 704206323 170053647 435864862#0 435864862#1 435864862#2 435864862#3 435864862#4 435864862#5 435864862#6 -27017001#1 -27017001#0 27016999#0 27016999#1 127966368 27016995 704206322 27016992 704206321 759236600#14 759236600#15 606167756#0 606167756#1 606167756#2 -111663898#1 111663936#1 111663936#2 111663936#3 -111663938#0 -240990502#2"/>
    </vehicle>
    <vehicle id="bus26" type="bus_bus" depart="26.00">
        <route edges="-852586830#1 -436050076 -127419747#8 -127419747#7 -127419747#6 -127419747#5 -127419747#4 -127419747#3 -127419747#2 -127419747#1 -127419747#0 387612245#8 649754795 380300255#0 380300255#1 380300255#2 380300255#3 380300255#4 127086388#0 127086388#1 127086374#0 127086374#1 438914452#0 438914452#1 438914452#2 438914457 415062669#1 438914458 127086377#0 127086377#1 127086377#2 852610252#2 852610253 852610254#0 852610254#1"/>
    </vehicle>
    <vehicle id="bus27" type="bus_bus" depart="27.00">
        <route edges="130785112#2 126924170#0 126924170#1 126924170#2 126924170#3 126924170#4 126924183#1 126924183#2 126924183#3 126924183#4 126924183#5 126924183#6 126924159 287600622#8 151534280#0 151534280#1 151534280#2 127419733 277378101#0 277378101#1 277378101#2 277378101#3 127393545#0 127393545#1 127949579"/>
    </vehicle>
    <vehicle id="bus28" type="bus_bus" depart="28.00">
        <route edges="-130662521#2 130662521#2 130662521#3 130662521#4 130662521#5 130662516#13 126748459 126795957 438474205#0 438474205#1 438474205#2 134834985#0 134834985#1 134834985#2 134834985#3 134834985#4 126795967 764254546#0 764254546#1 764254546#2 764254546#3 130785108#0 130785108#1 126821448#3 853179135 127674086 -126822553#7 127674099 126924183#4 126924183#5 126924183#6 126924159 287600622#8 287600622#9 287600622#10"/>
    </vehicle>
    <vehicle id="bus29" type="bus_bus" depart="29.00">
        <route edges="-127966358#0 -604054745#2 -604054745#1 582084300 -604054746#0 850882770 604054740 604054748 851457612 -604054739#0 -604054749#1 -604054749#0 170053645 170053648#0 170053648#1 747282961#3 258250060#8 300715137#0 300715137#1 396906185#0 396906185#1 396906185#2 277426866#0 277426866#1 277426866#2 277426866#3 277426866#4 277426866#5 277426866#6 764194616#0 764194616#1 396906182#0 396906182#1 127419732#10 127419732#11 127419732#12 300725070#0 300725070#1 130660357#0 130660357#1 764254549 127665404#0 127665404#1 127665404#2 127665404#3 127665404#4 127665404#5 127665404#6 127665404#7 127665404#8 127665404#9 127665404#10 127665404#11 127665404#12 764254544#0 764254544#1 764254544#2 764254544#3 764254544#4 764254544#5 764254544#6 764254544#7 637694070 637694069#0 637694069#1 637694069#2 126748454"/>
    </vehicle>
    <vehicle id="bus30" type="bus_bus" depart="30.00">
        <route edges="94016868#2 432968048#1 94016871 127419743#0 127419743#1 127419743#2 -127419747#5 -127419747#4 -127419747#3 -127419747#2 -127419747#1 -127419747#0 387612245#8 649754795 380300255#0 380300255#1 380300255#2 380300255#3 380300255#4 127086388#0 127086388#1 -438472650#1 -438472650#0 -438474854 -438473111 -438473456 -438473606#1 -438473606#0 -134834985#4 -134834985#3 -134834985#2 -134834985#1 -134834985#0 -438474205#2 -438474205#1 -438474205#0 134834983 130661470#0 130661470#1 130661470#2 -126748452#0 130662516#11"/>
    </vehicle>
    <vehicle id="bus31" type="bus_bus" depart="31.00">
        <route edges="127429167#0 127429171 -127419740#4 -127419740#3 -127419740#2 -127419740#1 -127419740#0 127419715 582084302 127419732#3 127419732#4 127419732#5 127419732#6 127419732#7 127419732#8 127419732#9 127419732#10 127419732#11 127419732#12 300725070#0 300725070#1 130660357#0 130660357#1 764254549 127665404#0 127665404#1 127665404#2 127665404#3 127665404#4 127665404#5 127665404#6 127665404#7 127665404#8 127665404#9 127665404#10 127665404#11 127665404#12 764254544#0 764254544#1 764254544#2 764254544#3 764254544#4 130659496#3 130659496#4 130659496#5 130659496#6 130659496#7 130659496#8 130659496#9 130659496#10 130659496#11 127666448#1 127666448#2 318034405#0 318034405#1 367528541 367528540 69421417#0 69421417#1 69421415#4 69421415#5 69421415#6 69421415#7 764254564 127666452#0 127666452#1 127666452#2 127666452#3 127666452#4 127666452#5 127666452#6 127666452#7 127666452#8 69421397#2 69421397#3 69421397#4 69421397#5 69421397#6 69476905#0 69476905#1 642883023#0 642883023#1 166769342#0"/>
    </vehicle>
    <vehicle id="bus32" type="bus_bus" depart="32.00">
        <route edges="637694070 637694069#0 637694069#1 637694069#2 637694069#3 637694069#4 -126748445#4 -126748445#3 -126748445#2 -126748445#1 -126748445#0 130662520#0 130662520#1 130662520#2 130662520#3 166769344 283837612#0 283837612#1 283837612#2 283837612#3 283837930 283835867#6 126794896#0 126794896#1 126985059 836311478 836311477 380300257#0 380300257#1"/>
    </vehicle>
    <vehicle id="bus33" type="bus_bus" depart="33.00">
        <route edges="-387044693 126985750#1 -127734288#7 127086378#7 127086378#8 127086378#9 127086378#10 858024337 126987277#0 126987277#1 126987277#2 457580783#3 -457967740#1 -457967740#0 -287600627#3 -287600627#2 -287600627#1 -287600627#0 126985287 283835867#2 126794882#0 837860730 -130657640#1 126794890 126794891#2 126794866#0 -126794866#0"/>
    </vehicle>
    <vehicle id="bus35" type="bus_bus" depart="35.00">
        <route edges="-300712495#3 -300712495#2 94003603 237521935#4 93995204 93995206#0 93995206#1 93995206#2 93995206#3 93995206#4 747282959 93995209#0 93995209#1 747282960#0 747282960#1 93995207#0 93995207#1 747282961#0 747282961#1 747282961#2 747282961#3 258250060#8 300715137#0 300715137#1 396906185#0 396906185#1 396906185#2 277426866#0 277426866#1 277426866#2 277426866#3 277426866#4 277426866#5 277426866#6 764194616#0 764194616#1 396906182#0 396906182#1 127419732#10 127419732#11 127419732#12 300725070#0 300725070#1 130660357#0 130660357#1 764254549 127665404#0 127665404#1 127665404#2 127665404#3 127665404#4 127665404#5 127665404#6 127665404#7 127665404#8 127665404#9 127665404#10 127665404#11 127665404#12 764254544#0 764254544#1 764254544#2 764254544#3 764254544#4 130659496#3 130659496#4 130659496#5 130659496#6 130659496#7 130659496#8 130659496#9 130659496#10 130659496#11 127666448#1 127666448#2 318034405#0 318034405#1 367528541 367528540 69421417#0 -69421417#0 166859408#0 166859408#1 859217987 859217988"/>
    </vehicle>
    <vehicle id="bus36" type="bus_bus" depart="36.00">
        <route edges="69476877#0 69476877#1 69476876#1 69476876#2 127560401#1 127560401#2 127560401#3 -69421417#1 -69421417#0 166859408#0 166859408#1 166859404#0 166859404#1 -127666448#2 -127666448#1 -127666448#0 126158515#0 126158515#1 853228315 194730486#15 194730486#16 194730486#17 194730486#18 194730486#19 194730486#20 194730486#21 194730486#22 194730486#23 194730486#24 649723675 649723678#0 649723678#1 127260823#0 127260823#1 457964212#0 457964212#1 457964212#2 457964212#3 457964212#4 457964212#5 457964212#6 457964212#7 457964212#8 457964212#9 775808217#0 775808217#1 396906183#0 396906183#1 396906183#2 396906183#3 300715136#4 300715136#5 -93997228#6 -93997228#5 -93997228#4 -93997228#3 -93997228#2 -93997228#1 -93997233#5 -93997233#4 -93997233#3 -93997233#2 -93997233#1 -93997233#0 94012417#0 94012417#1 94012417#2 94012417#3 94012417#4 94012417#5 94012374#1 -94012445#0"/>
    </vehicle>
    <vehicle id="bus37" type="bus_bus" depart="37.00">
        <route edges="130795061#3 764194631#3 764194631#4 764194631#5 764194626 764194625#0 764194625#1 438021252 127086388#1 -438472650#1 -438472650#0 -438474854 -438473111 -438473456 -438473606#1 -438473606#0 -134834985#4 -134834985#3 -134834985#2 -134834985#1 -134834985#0 -438474205#2 -438474205#1 -438474205#0 134834983 277426868#0 277426868#1 127671025#0 127671025#1 127671025#2 439083815 764254551 126786486#0 126786486#1 126786488"/>
    </vehicle>
    <vehicle id="bus38" type="bus_bus" depart="38.00">
        <route edges="764194635#0 764194635#1 764194635#2 456843054 764254540#0 764254540#1 764254540#2 456844133#0 456844133#1 127062184#0 127062184#1 834913092 -127069581#4 -127069581#3 -127069581#2 127069581#2"/>
    </vehicle>
    <vehicle id="bus39" type="bus_bus" depart="39.00">
        <route edges="-849946428#0 849946428#0 -127419747#6 -127419747#5 -127419747#4 764194623#3 764194623#4 127216224#5 127216224#6 127216224#7 127216224#8 127419744#0 127419744#1 127419744#2 390733906#0 390733906#1 390733906#2 -390733906#2"/>
    </vehicle>
    <vehicle id="bus40" type="bus_bus" depart="40.00">
        <route edges="127559278#1 69421407#0 69421407#1 69421407#2 642883023#0 642883023#1 100223011#0 100223011#1 100223011#2 100223011#3 764254565#0 764254565#1 764254565#2 764254559#0 764254559#1 130658066#0 130658066#1 130658066#2 130658066#3 130658066#4 130658066#5 130658066#6 130658066#7 130662519#0 130662519#1 130662519#2 130662519#3 130662519#4 126794865 166769344 283837612#0 283837612#1 283837612#2 283837612#3 283837930 283835867#6 283835867#7 283835867#0 283836052 287600627#0 287600627#1 287600627#2 287600627#3 457967740#0 457967740#1 457580783#4 457580783#5 457580783#6 457580783#7 457580783#0 457580783#1 126987274#0 126987274#1 126987274#2 126987274#3 126987274#4 126987274#5 -127086378#10 -127086378#9 -127086378#8 -127086378#7 -127086378#6 -127086378#5 -127086378#4 -127086378#3 127734296#3 127734296#4 429486774 642883031#7 642883031#8 642883031#9 642883031#10 642883031#11 287600631#0 287600631#1 642903171 -373086966#6 -373086966#5 -373086966#4 -373086966#3 -373086966#2 -373086966#1 -373086966#0 -127072498#4 -456847835"/>
    </vehicle>
    <vehicle id="bus41" type="bus_bus" depart="41.00">
        <route edges="127741430 -246355235#1 -246355235#0 126985751 457580783#1 457580783#2 457580783#3 -457967740#1 -457967740#0 -287600627#3 -287600627#2 -287600627#1 -287600627#0 126985287 283835867#2 283835867#3 283835867#4 283837535#0 283837535#1 283836163 287600621#0 287600621#1 287600621#2 287600621#3 836355746 836355747#0 130662521#0 130662521#1 130662521#2 130662521#3 130662521#4 130662521#5 130662516#13 126748459 852325432 130661470#0 130661470#1 130661470#2 130661470#3 130661470#4 130659496#0 130659496#1 130659496#2 130659496#3 126158485#6 126158485#7 126158485#8 126158485#9 126158485#10 126158485#11 126158485#12 126158485#13 126158485#14 126158485#15 127419729#3 151534275#0 151534275#1 151534275#2 856195714#0 856195714#1 856195715#0 127260839 127947935#0 127947935#1 127947935#2 127947935#3 127947935#4 127947952 704206323 170053647 435864862#0 435864862#1 435864862#2 435864862#3 435864862#4 435864862#5 435864862#6 -27017001#1 -27017001#0 27016999#0 27016999#1 704207402 127966363#0 127966363#1 27016998#0 27016998#1 27016998#2 27016998#3 27016998#4 27016998#5 27016998#6 27016998#7 27016998#8 277426864 27017068 320040190#10 320040190#11 320040190#12 320040190#13 759236599#0"/>
    </vehicle>
    <vehicle id="bus42" type="bus_bus" depart="42.00">
        <route edges="126795961#3 126795961#4 126795961#5 126795961#6 126795961#7 126795961#8 126795961#9 126795961#10 126795961#11 126795961#12 126795961#13 126795961#14 126795961#15 287600623#1 277373185#0 277373185#1 277373185#2 127260818#0 127260818#1 127394431 127394434#3 -396906182#2 -396906182#1 -396906182#0 -764194616#1 -764194616#0 -277426866#6 -277426866#5 -277426866#4 -277426866#3 -277426866#2 -277426866#1 -277426866#0"/>
    </vehicle>
    <vehicle id="bus43" type="bus_bus" depart="43.00">
        <route edges="94016891#1 410262159 94016871 127419743#0 127419743#1 127216224#3 127216224#4 127216224#5 127216224#6 127216224#7 127216224#8 127419744#0 127419744#1 127419744#2 390733906#0 390733906#1 410090915 433128211 -127217130#3 -127217130#2 127217130#2"/>
    </vehicle>
    <vehicle id="bus44" type="bus_bus" depart="44.00">
        <route edges="-127086380#2 127086380#2 764194631#4 764194631#5 764194626 764194625#0 764194625#1 438021252 127086388#1 -438472650#1 -438472650#0 -438474854 -438473111 -438473456 -438473606#1 -438473606#0 126795967 764254546#0 764254546#1 764254546#2 764254546#3 130785108#0 130785108#1 126821448#3 853179136 456861911#3 -126821446#2"/>
    </vehicle>
    <vehicle id="bus45" type="bus_bus" depart="45.00">
        <route edges="-127260827#6 -127260827#5 -127260827#4 -127260840#0 -127260836#2 127419732#12 300725070#0 300725070#1 130660357#0 130660357#1 764254549 127665404#0 127665404#1 127665404#2 127665404#3 151534285#0 151534285#1 151534285#2 151534285#3 168230203#4 151534286#1 130659494#0"/>
    </vehicle>
    <vehicle id="bus46" type="bus_bus" depart="46.00">
        <route edges="396906184#13 396906184#14 396906184#15 396906184#16 69421397#12 194730486#6 194730486#7 194730486#8 194730486#9 194730486#10 194730486#11 130662516#0 130662516#1 130662516#2 130662516#3 130662516#4 130662516#5 130662516#6 130662516#7 130662516#8 130662516#9 130662516#10 130662516#11 130662516#12 130662516#13 130662517#0 130662517#1 130662517#2 130662517#3 130662517#4 130662517#5 130662517#6 130662517#7 130662517#8 127734295#3 126820818#1 126820818#2"/>
    </vehicle>
    <vehicle id="bus47" type="bus_bus" depart="47.00">
        <route edges="-127069574#1 -127072475#1 -127072475#0 127069580#4 642883031#6 642883031#7 387044696 456844133#1 -127734296#4 -127734296#3 127086378#3 127086378#4 127086378#5 127086378#6 127086378#7 127086378#8 127086378#9 127086378#10 858024337 126987277#0 126987277#1 126987277#2 457580783#3 -457967740#1 -457967740#0 -287600627#3 -287600627#2 -287600627#1 -287600627#0 126985287 283835867#2 283835867#3 283835867#4 283837535#0 283837535#1 283836163 287600621#0 287600621#1 287600621#2 287600621#3 836355746 836355747#0 130662521#0 130662521#1 130662521#2 130662521#3 130662521#4 130662521#5 130662516#13 126748459"/>
    </vehicle>
    <vehicle id="bus48" type="bus_bus" depart="48.00">
        <route edges="94016883 410262159 94016871 127419743#0 127419743#1 127419743#2 127419743#3 127419743#4 127419743#5 127429174 -127419740#5 -127419740#4 127419716#0 127419716#1 127429164 127949586#1 -127260840#13 -127260840#12 -127260840#11 -127260840#10 -127260840#9 -127260840#8 -127260840#7 -127393533 127260824#8 127949580#0 127949580#1 -168230204#9 127393518"/>
    </vehicle>
    <vehicle id="bus49" type="bus_bus" depart="49.00">
        <route edges="94003600#1 -94003600#1 -94003600#0 -93997237#0 -759041159#1 -759041159#0 -432967930#1 -432967930#0 432968046 432968048#1 94016871 127419743#0 127419743#1 127216224#3 127216224#4 127216224#5 127216224#6 127216224#7 127216224#8 127419744#0 127419744#1 127419744#2 390733906#0 390733906#1 410090915 433128211 127217125#1 94021159#0 94021159#1 94021159#2 94021159#3 675089633#0"/>
    </vehicle>
    <vehicle id="bus50" type="bus_bus" depart="50.00">
        <route edges="-126746226#1 -126746226#0 377630727#8 377630727#9 377630727#10 377630727#11 377630727#12 637695402#0 126158485#1 126158485#2 126158485#3 126158485#4 126158485#5 126158485#6 126158485#7 126158485#8 126158485#9 126158485#10 126158485#11 126158485#12 126158485#13 126158485#14 126158485#15 127419729#3 151534275#0 151534275#1 151534275#2 856195714#0 856195714#1 856195715#0 127260839 127947935#0 127947935#1 127947935#2 127947935#3 127947935#4 127947952 704206323 170053647 435864862#0 435864862#1 435864862#2 435864862#3 435864862#4 435864862#5 435864862#6 -27017001#1 -27017001#0 27016999#0 27016999#1 704207402 127966363#0 127966363#1 27016998#0 27016998#1 27016998#2 27016998#3 27016998#4 27016998#5 27016998#6 27017389#0 27017389#1"/>
    </vehicle>
    <vehicle id="bus51" type="bus_bus" depart="51.00">
        <route edges="167086610 380300678#0 380300678#1 380300678#2 377630727#1 377630727#2 377630727#3 377630727#4 377630727#5 377630727#6 377630727#7 377630727#8 377630727#9 377630727#10 377630727#11 377630727#12 637695402#0 126158485#1 126158485#2 126158485#3 126158485#4 126158485#5 126158485#6 126158485#7 126158485#8 126158485#9 126158485#10 126158485#11 126158485#12 126158485#13 126158485#14 126158485#15 127419729#3 764194618 764254550#0 764254550#1 277426867#0 277426867#1 277426867#2 277426867#3 277426867#4 277426867#5 -396906182#2 -396906182#1 127260840#3 127393559#1"/>
    </vehicle>
    <vehicle id="bus52" type="bus_bus" depart="52.00">