<?xml version="1.0" encoding="UTF-8"?>
<!-- generated on 2020-11-17 18:21:29.307901 by $Id$ v1_7_0+0890-63ce6de543
  options: <doubleminus>vehicle-class bus <doubleminus>prefix bus -n saopaulo.net.xml -l -e 5000 -o saopaulo_bus.trips.xml
-->
<routes xmlns:xsi="http://www.w3.org/2001/XMLSchema-instance" xsi:noNamespaceSchemaLocation="http://sumo.dlr.de/xsd/routes_file.xsd">
    <vType id="bus_bus" vClass="bus"/>
    <trip id="bus0" depart="0.00" from="130777424" to="-126783833#0" type="bus_bus"/>
    <trip id="bus1" depart="1.00" from="-93997228#3" to="-298831553#4" type="bus_bus"/>
    <trip id="bus2" depart="2.00" from="300715135#1" to="151534275#1" type="bus_bus"/>
    <trip id="bus3" depart="3.00" from="759041159#0" to="-127077801#1" type="bus_bus"/>
    <trip id="bus4" depart="4.00" from="126937635" to="-126786489#2" type="bus_bus"/>
    <trip id="bus5" depart="5.00" from="-373086966#1" to="127216227#1" type="bus_bus"/>
    <trip id="bus6" depart="6.00" from="-126786470" to="-167086650#0" type="bus_bus"/>
    <trip id="bus7" depart="7.00" from="130785115#3" to="127394435#2" type="bus_bus"/>
    <trip id="bus8" depart="8.00" from="-377630727#4" to="127674085#1" type="bus_bus"/>
    <trip id="bus9" depart="9.00" from="438472651#4" to="-111663938#0" type="bus_bus"/>
    <trip id="bus10" depart="10.00" from="435864862#4" to="168230205#0" type="bus_bus"/>
    <trip id="bus11" depart="11.00" from="126163252" to="-127671041#4" type="bus_bus"/>
    <trip id="bus12" depart="12.00" from="94003572#0" to="111663936#6" type="bus_bus"/>
    <trip id="bus13" depart="13.00" from="-127086393#5" to="-127088219#0" type="bus_bus"/>
    <trip id="bus14" depart="14.00" from="642883023#1" to="127947944#1" type="bus_bus"/>
    <trip id="bus15" depart="15.00" from="438021250#0" to="287600622#11" type="bus_bus"/>
    <trip id="bus16" depart="16.00" from="127419721#0" to="94003606" type="bus_bus"/>
    <trip id="bus17" depart="17.00" from="126786489#3" to="127419726#0" type="bus_bus"/>
    <trip id="bus18" depart="18.00" from="457964229#0" to="127966376" type="bus_bus"/>
    <trip id="bus19" depart="19.00" from="69421407#2" to="127559296" type="bus_bus"/>
    <trip id="bus20" depart="20.00" from="240990502#2" to="-126820827" type="bus_bus"/>
    <trip id="bus21" depart="21.00" from="-387044689" to="-93995202" type="bus_bus"/>
    <trip id="bus22" depart="22.00" from="-127077791" to="-313159264#3" type="bus_bus"/>
    <trip id="bus23" depart="23.00" from="-127216227#0" to="-764254532#1" type="bus_bus"/>
    <trip id="bus24" depart="24.00" from="130662521#0" to="126748432#0" type="bus_bus"/>
    <trip id="bus25" depart="25.00" from="126783833#3" to="-240990502#2" type="bus_bus"/>
    <trip id="bus26" depart="26.00" from="-852586830#1" to="852610254#1" type="bus_bus"/>
    <trip id="bus27" depart="27.00" from="130785112#2" to="127949579" type="bus_bus"/>
    <trip id="bus28" depart="28.00" from="-130662521#2" to="287600622#10" type="bus_bus"/>
    <trip id="bus29" depart="29.00" from="-127966358#0" to="126748454" type="bus_bus"/>
    <trip id="bus30" depart="30.00" from="94016868#2" to="130662516#11" type="bus_bus"/>
    <trip id="bus31" depart="31.00" from="127429167#0" to="166769342#0" type="bus_bus"/>
    <trip id="bus32" depart="32.00" from="637694070" to="380300257#1" type="bus_bus"/>
    <trip id="bus33" depart="33.00" from="-387044693" to="-126794866#0" type="bus_bus"/>
    <trip id="bus34" depart="34.00" from="111663881#1" to="-604054749#0" type="bus_bus"/>
    <trip id="bus35" depart="35.00" from="-300712495#3" to="859217988" type="bus_bus"/>
    <trip id="bus36" depart="36.00" from="69476877#0" to="-94012445#0" type="bus_bus"/>
    <trip id="bus37" depart="37.00" from="130795061#3" to="126786488" type="bus_bus"/>
    <trip id="bus38" depart="38.00" from="764194635#0" to="127069581#2" type="bus_bus"/>
    <trip id="bus39" depart="39.00" from="-849946428#0" to="-390733906#2" type="bus_bus"/>
    <trip id="bus40" depart="40.00" from="127559278#1" to="-456847835" type="bus_bus"/>
    <trip id="bus41" depart="41.00" from="127741430" to="759236599#0" type="bus_bus"/>
    <trip id="bus42" depart="42.00" from="126795961#3" to="-277426866#0" type="bus_bus"/>
    <trip id="bus43" depart="43.00" from="94016891#1" to="127217130#2" type="bus_bus"/>
    <trip id="bus44" depart="44.00" from="-127086380#2" to="-126821446#2" type="bus_bus"/>
    <trip id="bus45" depart="45.00" from="-127260827#6" to="130659494#0" type="bus_bus"/>
    <trip id="bus46" depart="46.00" from="396906184#13" to="126820818#2" type="bus_bus"/>
    <trip id="bus47" depart="47.00" from="-127069574#1" to="126748459" type="bus_bus"/>
    <trip id="bus48" depart="48.00" from="94016883" to="127393518" type="bus_bus"/>
    <trip id="bus49" depart="49.00" from="94003600#1" to="675089633#0" type="bus_bus"/>
    <trip id="bus50" depart="50.00" from="-126746226#1" to="27017389#1" type="bus_bus"/>
    <trip id="bus51" depart="51.00" from="167086610" to="127393559#1" type="bus_bus"/>
    <trip id="bus52" depart="52.00" from="-852586830#0" to="130662516#3" type="bus_bus"/>
    <trip id="bus53" depart="53.00" from="-127260836#0" to="126924175" type="bus_bus"/>
    <trip id="bus54" depart="54.00" from="127072492#0" to="93997237#1" type="bus_bus"/>
    <trip id="bus55" depart="55.00" from="69476876#1" to="-456847835" type="bus_bus"/>
    <trip id="bus56" depart="56.00" from="127260819#11" to="-130662518#4" type="bus_bus"/>
    <trip id="bus57" depart="57.00" from="764194628#3" to="69421416" type="bus_bus"/>
    <trip id="bus58" depart="58.00" from="-94012445#0" to="130662515#7" type="bus_bus"/>
    <trip id="bus59" depart="59.00" from="130657641#10" to="-127671030#3" type="bus_bus"/>
    <trip id="bus60" depart="60.00" from="320040190#5" to="127393568#0" type="bus_bus"/>
    <trip id="bus61" depart="61.00" from="387044692" to="127393529" type="bus_bus"/>
    <trip id="bus62" depart="62.00" from="-111663890" to="-94016877#2" type="bus_bus"/>
    <trip id="bus63" depart="63.00" from="-126748446#1" to="835004629" type="bus_bus"/>
    <trip id="bus64" depart="64.00" from="69476906" to="457964229#0" type="bus_bus"/>
    <trip id="bus65" depart="65.00" from="-94016887#1" to="-126937632" type="bus_bus"/>
    <trip id="bus66" depart="66.00" from="69476879#2" to="93995208" type="bus_bus"/>
    <trip id="bus67" depart="67.00" from="-127077810#5" to="127086378#2" type="bus_bus"/>
    <trip id="bus68" depart="68.00" from="-127069589#3" to="313161821#0" type="bus_bus"/>
    <trip id="bus69" depart="69.00" from="373087179#0" to="-127393568#1" type="bus_bus"/>
    <trip id="bus70" depart="70.00" from="127086385" to="127419721#2" type="bus_bus"/>
    <trip id="bus71" depart="71.00" from="-849946428#1" to="69421432#1" type="bus_bus"/>
    <trip id="bus72" depart="72.00" from="126937643#3" to="-27016998#4" type="bus_bus"/>
    <trip id="bus73" depart="73.00" from="127419726#3" to="287600622#11" type="bus_bus"/>
    <trip id="bus74" depart="74.00" from="-27017209#0" to="-94012417#5" type="bus_bus"/>
    <trip id="bus75" depart="75.00" from="94016877#1" to="130662522#4" type="bus_bus"/>
    <trip id="bus76" depart="76.00" from="127069566" to="127260824#2" type="bus_bus"/>
    <trip id="bus77" depart="77.00" from="-127393551#1" to="-300712495#1" type="bus_bus"/>
    <trip id="bus78" depart="78.00" from="126158518#0" to="127671047#0" type="bus_bus"/>
    <trip id="bus79" depart="79.00" from="-387044707" to="-277426866#6" type="bus_bus"/>
    <trip id="bus80" depart="80.00" from="-127072470#2" to="130659496#6" type="bus_bus"/>
    <trip id="bus81" depart="81.00" from="-387044693" to="760833521#1" type="bus_bus"/>
    <trip id="bus82" depart="82.00" from="69421402#1" to="-127069581#3" type="bus_bus"/>
    <trip id="bus83" depart="83.00" from="-432968048#1" to="151534239#7" type="bus_bus"/>
    <trip id="bus84" depart="84.00" from="-300719466#0" to="-127394435#0" type="bus_bus"/>
    <trip id="bus85" depart="85.00" from="853212813#0" to="127429168" type="bus_bus"/>
    <trip id="bus86" depart="86.00" from="127086378#0" to="387044708" type="bus_bus"/>
    <trip id="bus87" depart="87.00" from="438021252" to="-151534248#1" type="bus_bus"/>
    <trip id="bus88" depart="88.00" from="-127216214#1" to="126822556" type="bus_bus"/>
    <trip id="bus89" depart="89.00" from="126937645" to="127072492#0" type="bus_bus"/>
    <trip id="bus90" depart="90.00" from="287600622#23" to="151534245#6" type="bus_bus"/>
    <trip id="bus91" depart="91.00" from="94012426#1" to="-127088225#0" type="bus_bus"/>
    <trip id="bus92" depart="92.00" from="126820814#0" to="112545418#1" type="bus_bus"/>
    <trip id="bus93" depart="93.00" from="69421407#2" to="-396906181" type="bus_bus"/>
    <trip id="bus94" depart="94.00" from="-168230204#4" to="126986687#1" type="bus_bus"/>
    <trip id="bus95" depart="95.00" from="126937635" to="-764254546#0" type="bus_bus"/>
    <trip id="bus96" depart="96.00" from="-490443020#1" to="764254546#5" type="bus_bus"/>
    <trip id="bus97" depart="97.00" from="127069577#5" to="675089633#1" type="bus_bus"/>
    <trip id="bus98" depart="98.00" from="127419742#2" to="-126924148#0" type="bus_bus"/>
    <trip id="bus99" depart="99.00" from="94016895#1" to="604054749#1" type="bus_bus"/>
    <trip id="bus100" depart="100.00" from="94003598#2" to="764254557#7" type="bus_bus"/>
    <trip id="bus101" depart="101.00" from="642883031#0" to="-127947954#1" type="bus_bus"/>
    <trip id="bus102" depart="102.00" from="127216212#2" to="-27017001#1" type="bus_bus"/>
    <trip id="bus103" depart="103.00" from="126795964" to="-126937646" type="bus_bus"/>
    <trip id="bus104" depart="104.00" from="126786490" to="94012426#2" type="bus_bus"/>
    <trip id="bus105" depart="105.00" from="-849946428#1" to="387044703" type="bus_bus"/>
    <trip id="bus106" depart="106.00" from="127072497#0" to="126820819#0" type="bus_bus"/>
    <trip id="bus107" depart="107.00" from="94003572#2" to="94016883" type="bus_bus"/>
    <trip id="bus108" depart="108.00" from="127429164" to="27017209#0" type="bus_bus"/>
    <trip id="bus109" depart="109.00" from="-127741429" to="-93997237#2" type="bus_bus"/>
    <trip id="bus110" depart="110.00" from="94003598#2" to="127560405" type="bus_bus"/>
    <trip id="bus111" depart="111.00" from="127419729#1" to="300715138#0" type="bus_bus"/>
    <trip id="bus112" depart="112.00" from="-126924183#7" to="127666452#2" type="bus_bus"/>
    <trip id="bus113" depart="113.00" from="127260821#3" to="642883026#0" type="bus_bus"/>
    <trip id="bus114" depart="114.00" from="-127947951#0" to="94003585#3" type="bus_bus"/>
    <trip id="bus115" depart="115.00" from="-127077791" to="-130785114" type="bus_bus"/>
    <trip id="bus116" depart="116.00" from="127949575" to="151534264#0" type="bus_bus"/>
    <trip id="bus117" depart="117.00" from="-396906181" to="-127262672#0" type="bus_bus"/>
    <trip id="bus118" depart="118.00" from="758913934#1" to="-390733906#0" type="bus_bus"/>
    <trip id="bus119" depart="119.00" from="127949572" to="127966385" type="bus_bus"/>
    <trip id="bus120" depart="120.00" from="126924183#10" to="127666448#1" type="bus_bus"/>
    <trip id="bus121" depart="121.00" from="127393554" to="852393309" type="bus_bus"/>
    <trip id="bus122" depart="122.00" from="-27017393" to="27016999#0" type="bus_bus"/>
    <trip id="bus123" depart="123.00" from="-435864862#0" to="126786489#0" type="bus_bus"/>
    <trip id="bus124" depart="124.00" from="151534286#3" to="-94003595#15" type="bus_bus"/>
    <trip id="bus125" depart="125.00" from="111663898#0" to="300719462#1" type="bus_bus"/>
    <trip id="bus126" depart="126.00" from="-127072481" to="127069580#4" type="bus_bus"/>
    <trip id="bus127" depart="127.00" from="94016895#1" to="94016887#0" type="bus_bus"/>
    <trip id="bus128" depart="128.00" from="-127072482#4" to="-27017001#1" type="bus_bus"/>
    <trip id="bus129" depart="129.00" from="-849946428#1" to="849946428#1" type="bus_bus"/>
    <trip id="bus130" depart="130.00" from="706082728#10" to="69476875#1" type="bus_bus"/>
    <trip id="bus131" depart="131.00" from="126783832#1" to="-127674091#0" type="bus_bus"/>
    <trip id="bus132" depart="132.00" from="606167756#0" to="194730486#16" type="bus_bus"/>
    <trip id="bus133" depart="133.00" from="130657641#4" to="94012451#2" type="bus_bus"/>
    <trip id="bus134" depart="134.00" from="130795061#0" to="-111663938#0" type="bus_bus"/>
    <trip id="bus135" depart="135.00" from="456402940" to="-94003595#12" type="bus_bus"/>
    <trip id="bus136" depart="136.00" from="151534245#11" to="853265244" type="bus_bus"/>
    <trip id="bus137" depart="137.00" from="-127419725#1" to="-127260832" type="bus_bus"/>
    <trip id="bus138" depart="138.00" from="-127260821#2" to="127419726#5" type="bus_bus"/>
    <trip id="bus139" depart="139.00" from="-858188176#0" to="127947951#2" type="bus_bus"/>
    <trip id="bus140" depart="140.00" from="277373177" to="-170053649#1" type="bus_bus"/>
    <trip id="bus141" depart="141.00" from="130662519#1" to="-456851874#0" type="bus_bus"/>
    <trip id="bus142" depart="142.00" from="127216219#2" to="760833521#1" type="bus_bus"/>
    <trip id="bus143" depart="143.00" from="639732160" to="-127086376#2" type="bus_bus"/>
    <trip id="bus144" depart="144.00" from="126937645" to="-764194623#3" type="bus_bus"/>
    <trip id="bus145" depart="145.00" from="-111663915#1" to="373252786#1" type="bus_bus"/>
    <trip id="bus146" depart="146.00" from="130662522#0" to="-456847835" type="bus_bus"/>
    <trip id="bus147" depart="147.00" from="300715136#9" to="127419726#0" type="bus_bus"/>
    <trip id="bus148" depart="148.00" from="126985748#0" to="-125984211#0" type="bus_bus"/>
    <trip id="bus149" depart="149.00" from="-127072492#1" to="69618399" type="bus_bus"/>
    <trip id="bus150" depart="150.00" from="760675664#0" to="127419714" type="bus_bus"/>
    <trip id="bus151" depart="151.00" from="606167756#0" to="127665404#6" type="bus_bus"/>
    <trip id="bus152" depart="152.00" from="-127671041#10" to="-127393564#0" type="bus_bus"/>
    <trip id="bus153" depart="153.00" from="-94016895#0" to="759236600#10" type="bus_bus"/>
    <trip id="bus154" depart="154.00" from="396906184#9" to="675089633#0" type="bus_bus"/>
    <trip id="bus155" depart="155.00" from="759236600#15" to="-240990502#2" type="bus_bus"/>
    <trip id="bus156" depart="156.00" from="-457967740#1" to="-127216223#3" type="bus_bus"/>
    <trip id="bus157" depart="157.00" from="387044708" to="706082728#1" type="bus_bus"/>
    <trip id="bus158" depart="158.00" from="126820823#0" to="130657641#1" type="bus_bus"/>
    <trip id="bus159" depart="159.00" from="-127734296#4" to="836327473" type="bus_bus"/>
    <trip id="bus160" depart="160.00" from="69421419#1" to="94012390#2" type="bus_bus"/>
    <trip id="bus161" depart="161.00" from="438473456" to="69476879#0" type="bus_bus"/>
    <trip id="bus162" depart="162.00" from="-126783830" to="287600627#1" type="bus_bus"/>
    <trip id="bus163" depart="163.00" from="126158491#2" to="838077115" type="bus_bus"/>
    <trip id="bus164" depart="164.00" from="430053773#1" to="69421397#8" type="bus_bus"/>
    <trip id="bus165" depart="165.00" from="438473112#1" to="-544229532" type="bus_bus"/>
    <trip id="bus166" depart="166.00" from="390733906#3" to="-127217130#0" type="bus_bus"/>
    <trip id="bus167" depart="167.00" from="69476871#1" to="649723677#4" type="bus_bus"/>
    <trip id="bus168" depart="168.00" from="-380300255#2" to="438473457#0" type="bus_bus"/>
    <trip id="bus169" depart="169.00" from="127077791" to="-94012374#0" type="bus_bus"/>
    <trip id="bus170" depart="170.00" from="396906184#5" to="-300715140#1" type="bus_bus"/>
    <trip id="bus171" depart="171.00" from="-126783827#2" to="-154538353" type="bus_bus"/>
    <trip id="bus172" depart="172.00" from="126158485#3" to="69421397#9" type="bus_bus"/>
    <trip id="bus173" depart="173.00" from="94003595#9" to="-764254546#4" type="bus_bus"/>
    <trip id="bus174" depart="174.00" from="130777426" to="126794866#2" type="bus_bus"/>
    <trip id="bus175" depart="175.00" from="94012417#1" to="127393555" type="bus_bus"/>
    <trip id="bus176" depart="176.00" from="858188176#0" to="-127260832" type="bus_bus"/>
    <trip id="bus177" depart="177.00" from="94003598#6" to="-130662518#3" type="bus_bus"/>
    <trip id="bus178" depart="178.00" from="94003586#6" to="-456861911#0" type="bus_bus"/>
    <trip id="bus179" depart="179.00" from="-127260827#13" to="126924175" type="bus_bus"/>
    <trip id="bus180" depart="180.00" from="287600622#22" to="-94012426#2" type="bus_bus"/>
    <trip id="bus181" depart="181.00" from="127966376" to="127228214#1" type="bus_bus"/>
    <trip id="bus182" depart="182.00" from="126794876#0" to="127559285" type="bus_bus"/>
    <trip id="bus183" depart="183.00" from="-675089633#0" to="240990502#1" type="bus_bus"/>
    <trip id="bus184" depart="184.00" from="-111663895#1" to="764254557#12" type="bus_bus"/>
    <trip id="bus185" depart="185.00" from="127419726#0" to="27017212#2" type="bus_bus"/>
    <trip id="bus186" depart="186.00" from="300715138#0" to="151534245#0" type="bus_bus"/>
    <trip id="bus187" depart="187.00" from="126783824" to="-127069580#3" type="bus_bus"/>
    <trip id="bus188" depart="188.00" from="151534245#4" to="100223011#2" type="bus_bus"/>
    <trip id="bus189" depart="189.00" from="100223013#3" to="637694069#4" type="bus_bus"/>
    <trip id="bus190" depart="190.00" from="277426866#0" to="-94003595#3" type="bus_bus"/>
    <trip id="bus191" depart="191.00" from="-94016895#1" to="126794882#8" type="bus_bus"/>
    <trip id="bus192" depart="192.00" from="126820813" to="-93997233#5" type="bus_bus"/>
    <trip id="bus193" depart="193.00" from="-127394435#0" to="126820814#1" type="bus_bus"/>
    <trip id="bus194" depart="194.00" from="859217988" to="151534282#0" type="bus_bus"/>
    <trip id="bus195" depart="195.00" from="759236600#8" to="127963206#0" type="bus_bus"/>
    <trip id="bus196" depart="196.00" from="-94012453#3" to="127419718#6" type="bus_bus"/>
    <trip id="bus197" depart="197.00" from="-111663881#1" to="-858188173" type="bus_bus"/>
    <trip id="bus198" depart="198.00" from="126986684#0" to="127560406#1" type="bus_bus"/>
    <trip id="bus199" depart="199.00" from="130795061#1" to="127072481" type="bus_bus"/>
    <trip id="bus200" depart="200.00" from="127069577#0" to="-27017001#1" type="bus_bus"/>
    <trip id="bus201" depart="201.00" from="127086378#6" to="759236600#15" type="bus_bus"/>
    <trip id="bus202" depart="202.00" from="396906184#8" to="-127955330" type="bus_bus"/>
    <trip id="bus203" depart="203.00" from="-127077805#1" to="127260819#9" type="bus_bus"/>
    <trip id="bus204" depart="204.00" from="130662518#0" to="111663915#1" type="bus_bus"/>
    <trip id="bus205" depart="205.00" from="456847835" to="300715145" type="bus_bus"/>
    <trip id="bus206" depart="206.00" from="154538331#0" to="-300712495#1" type="bus_bus"/>
    <trip id="bus207" depart="207.00" from="-27016998#8" to="-126783829#2" type="bus_bus"/>
    <trip id="bus208" depart="208.00" from="-456402937#4" to="127077797#3" type="bus_bus"/>
    <trip id="bus209" depart="209.00" from="642883031#13" to="-127069589#1" type="bus_bus"/>
    <trip id="bus210" depart="210.00" from="126924158#1" to="130659496#11" type="bus_bus"/>
    <trip id="bus211" depart="211.00" from="-240990502#1" to="168230204#2" type="bus_bus"/>
    <trip id="bus212" depart="212.00" from="127217123#0" to="-387044703" type="bus_bus"/>
    <trip id="bus213" depart="213.00" from="134834985#2" to="-111663936#1" type="bus_bus"/>
    <trip id="bus214" depart="214.00" from="300719466#7" to="373086966#5" type="bus_bus"/>
    <trip id="bus215" depart="215.00" from="-127260818#0" to="126820825#0" type="bus_bus"/>
    <trip id="bus216" depart="216.00" from="-130795054#4" to="93997239#4" type="bus_bus"/>
    <trip id="bus217" depart="217.00" from="127393538#0" to="-126822553#9" type="bus_bus"/>
    <trip id="bus218" depart="218.00" from="-456861911#4" to="637694069#4" type="bus_bus"/>
    <trip id="bus219" depart="219.00" from="127072498#1" to="396906184#6" type="bus_bus"/>
    <trip id="bus220" depart="220.00" from="151534270" to="94012453#0" type="bus_bus"/>
    <trip id="bus221" depart="221.00" from="127949576" to="93997232#0" type="bus_bus"/>
    <trip id="bus222" depart="222.00" from="758913936#0" to="127955323#0" type="bus_bus"/>
    <trip id="bus223" depart="223.00" from="277426863#2" to="127216224#7" type="bus_bus"/>
    <trip id="bus224" depart="224.00" from="490443020#1" to="127419718#6" type="bus_bus"/>
    <trip id="bus225" depart="225.00" from="759236600#1" to="300715136#11" type="bus_bus"/>
    <trip id="bus226" depart="226.00" from="127086381#1" to="-456402938" type="bus_bus"/>
    <trip id="bus227" depart="227.00" from="-456851874#1" to="130662514#3" type="bus_bus"/>
    <trip id="bus228" depart="228.00" from="373087179#0" to="127260827#6" type="bus_bus"/>
    <trip id="bus229" depart="229.00" from="130662515#6" to="-759041159#0" type="bus_bus"/>
    <trip id="bus230" depart="230.00" from="-127072501#0" to="-853265244" type="bus_bus"/>
    <trip id="bus231" depart="231.00" from="-858188174" to="-94016874#2" type="bus_bus"/>
    <trip id="bus232" depart="232.00" from="127419727#1" to="-127419723" type="bus_bus"/>
    <trip id="bus233" depart="233.00" from="-387044711#7" to="168230202#1" type="bus_bus"/>
    <trip id="bus234" depart="234.00" from="246355235#2" to="-127063701" type="bus_bus"/>
    <trip id="bus235" depart="235.00" from="126820825#1" to="127393575" type="bus_bus"/>
    <trip id="bus236" depart="236.00" from="126924165#1" to="-237521935#0" type="bus_bus"/>
    <trip id="bus237" depart="237.00" from="126924183#3" to="760833521#0" type="bus_bus"/>
    <trip id="bus238" depart="238.00" from="127741429" to="168230203#4" type="bus_bus"/>
    <trip id="bus239" depart="239.00" from="691048388#1" to="320040190#2" type="bus_bus"/>
    <trip id="bus240" depart="240.00" from="126786493#1" to="-111663936#3" type="bus_bus"/>
    <trip id="bus241" depart="241.00" from="126748440#0" to="300719463#3" type="bus_bus"/>
    <trip id="bus242" depart="242.00" from="649723677#0" to="93997235" type="bus_bus"/>
    <trip id="bus243" depart="243.00" from="126924183#1" to="300715136#9" type="bus_bus"/>
    <trip id="bus244" depart="244.00" from="127419732#8" to="127947941#3" type="bus_bus"/>
    <trip id="bus245" depart="245.00" from="-377630727#5" to="-277426866#1" type="bus_bus"/>
    <trip id="bus246" depart="246.00" from="127062184#4" to="-126786486#2" type="bus_bus"/>
    <trip id="bus247" depart="247.00" from="126158507#0" to="151534285#4" type="bus_bus"/>
    <trip id="bus248" depart="248.00" from="126820818#0" to="-127947951#0" type="bus_bus"/>
    <trip id="bus249" depart="249.00" from="127077810#2" to="-127393564#0" type="bus_bus"/>
    <trip id="bus250" depart="250.00" from="130661470#1" to="-126786473" type="bus_bus"/>
    <trip id="bus251" depart="251.00" from="126794896#0" to="127419743#0" type="bus_bus"/>
    <trip id="bus252" depart="252.00" from="-126786481" to="130662516#9" type="bus_bus"/>
    <trip id="bus253" depart="253.00" from="-127419726#3" to="127069589#4" type="bus_bus"/>
    <trip id="bus254" depart="254.00" from="-126822555#0" to="126748453" type="bus_bus"/>
    <trip id="bus255" depart="255.00" from="-300712495#4" to="-94016895#1" type="bus_bus"/>
    <trip id="bus256" depart="256.00" from="320040190#2" to="126748453" type="bus_bus"/>
    <trip id="bus257" depart="257.00" from="300724989#2" to="457964229#0" type="bus_bus"/>
    <trip id="bus258" depart="258.00" from="-625124828#0" to="-127072498#0" type="bus_bus"/>
    <trip id="bus259" depart="259.00" from="-126748446#1" to="127393568#0" type="bus_bus"/>
    <trip id="bus260" depart="260.00" from="94021159#3" to="126158491#2" type="bus_bus"/>
    <trip id="bus261" depart="261.00" from="130785115#5" to="387044687" type="bus_bus"/>
    <trip id="bus262" depart="262.00" from="130795052#1" to="300719465#0" type="bus_bus"/>
    <trip id="bus263" depart="263.00" from="93997233#2" to="-168230203#0" type="bus_bus"/>
    <trip id="bus264" depart="264.00" from="-126748451" to="-127671021" type="bus_bus"/>
    <trip id="bus265" depart="265.00" from="-127393572" to="151534239#8" type="bus_bus"/>
    <trip id="bus266" depart="266.00" from="127559296" to="-27017390#0" type="bus_bus"/>
    <trip id="bus267" depart="267.00" from="194730486#20" to="320040190#4" type="bus_bus"/>
    <trip id="bus268" depart="268.00" from="-130662515#0" to="127949574" type="bus_bus"/>
    <trip id="bus269" depart="269.00" from="300719464" to="-127260827#9" type="bus_bus"/>
    <trip id="bus270" depart="270.00" from="456847835" to="94003586#7" type="bus_bus"/>
    <trip id="bus271" depart="271.00" from="-127260827#12" to="-126783833#3" type="bus_bus"/>
    <trip id="bus272" depart="272.00" from="100223007#2" to="151534282#0" type="bus_bus"/>
    <trip id="bus273" depart="273.00" from="94003572#5" to="126786490" type="bus_bus"/>
    <trip id="bus274" depart="274.00" from="27017214#0" to="-127072475#3" type="bus_bus"/>
    <trip id="bus275" depart="275.00" from="168230205#0" to="130659494#0" type="bus_bus"/>
    <trip id="bus276" depart="276.00" from="-127216228#1" to="377630727#12" type="bus_bus"/>
    <trip id="bus277" depart="277.00" from="642883031#2" to="127741452" type="bus_bus"/>
    <trip id="bus278" depart="278.00" from="-127393551#1" to="94012421#1" type="bus_bus"/>
    <trip id="bus279" depart="279.00" from="387612245#14" to="126158485#8" type="bus_bus"/>
    <trip id="bus280" depart="280.00" from="126985752" to="126748441#0" type="bus_bus"/>
    <trip id="bus281" depart="281.00" from="127260824#7" to="125698761#0" type="bus_bus"/>
    <trip id="bus282" depart="282.00" from="642883031#13" to="456402940" type="bus_bus"/>
    <trip id="bus283" depart="283.00" from="-127228213#2" to="94003585#3" type="bus_bus"/>
    <trip id="bus284" depart="284.00" from="130662521#0" to="457964212#0" type="bus_bus"/>
    <trip id="bus285" depart="285.00" from="258250060#1" to="126924177#6" type="bus_bus"/>
    <trip id="bus286" depart="286.00" from="300712495#0" to="94003595#0" type="bus_bus"/>
    <trip id="bus287" depart="287.00" from="-853265244" to="430056368" type="bus_bus"/>
    <trip id="bus288" depart="288.00" from="127419726#0" to="127086372#1" type="bus_bus"/>
    <trip id="bus289" depart="289.00" from="127062184#3" to="287600622#16" type="bus_bus"/>
    <trip id="bus290" depart="290.00" from="-852610254#1" to="640085826" type="bus_bus"/>
    <trip id="bus291" depart="291.00" from="562300159" to="-127077796#1" type="bus_bus"/>
    <trip id="bus292" depart="292.00" from="706082728#12" to="-387044701" type="bus_bus"/>
    <trip id="bus293" depart="293.00" from="127077802#1" to="127949583" type="bus_bus"/>
    <trip id="bus294" depart="294.00" from="126786490" to="-126786486#0" type="bus_bus"/>
    <trip id="bus295" depart="295.00" from="642883031#4" to="-130777424" type="bus_bus"/>
    <trip id="bus296" depart="296.00" from="-300715138#0" to="396906184#16" type="bus_bus"/>
    <trip id="bus297" depart="297.00" from="126163252" to="69476877#0" type="bus_bus"/>
    <trip id="bus298" depart="298.00" from="237521935#0" to="-764194623#2" type="bus_bus"/>
    <trip id="bus299" depart="299.00" from="-125984211#1" to="93997229#0" type="bus_bus"/>
    <trip id="bus300" depart="300.00" from="-127077810#5" to="27017388#1" type="bus_bus"/>
    <trip id="bus301" depart="301.00" from="127216220" to="300724989#2" type="bus_bus"/>
    <trip id="bus302" depart="302.00" from="168230205#0" to="130662518#4" type="bus_bus"/>
    <trip id="bus303" depart="303.00" from="127216224#8" to="390733906#3" type="bus_bus"/>
    <trip id="bus304" depart="304.00" from="-127088219#0" to="-287600634#0" type="bus_bus"/>
    <trip id="bus305" depart="305.00" from="170053648#0" to="-94012390#2" type="bus_bus"/>
    <trip id="bus306" depart="306.00" from="127734295#0" to="127077792" type="bus_bus"/>
    <trip id="bus307" depart="307.00" from="127394435#0" to="126820825#2" type="bus_bus"/>
    <trip id="bus308" depart="308.00" from="300719462#1" to="100223013#2" type="bus_bus"/>
    <trip id="bus309" depart="309.00" from="237521935#3" to="-640151465#0" type="bus_bus"/>
    <trip id="bus310" depart="310.00" from="-604054749#1" to="-127393510#1" type="bus_bus"/>
    <trip id="bus311" depart="311.00" from="-185699266#1" to="-127260840#7" type="bus_bus"/>
    <trip id="bus312" depart="312.00" from="127419721#0" to="318034405#0" type="bus_bus"/>
    <trip id="bus313" depart="313.00" from="-167086625" to="-27017214#0" type="bus_bus"/>
    <trip id="bus314" depart="314.00" from="127088225#0" to="277426866#3" type="bus_bus"/>
    <trip id="bus315" depart="315.00" from="94012391#0" to="127260840#1" type="bus_bus"/>
    <trip id="bus316" depart="316.00" from="-94003595#11" to="-127216214#1" type="bus_bus"/>
    <trip id="bus317" depart="317.00" from="-237521935#3" to="-300715140#1" type="bus_bus"/>
    <trip id="bus318" depart="318.00" from="-151534275#0" to="-126746240" type="bus_bus"/>
    <trip id="bus319" depart="319.00" from="127419718#4" to="-745536979#0" type="bus_bus"/>
    <trip id="bus320" depart="320.00" from="94006618" to="127419726#6" type="bus_bus"/>
    <trip id="bus321" depart="321.00" from="194730486#11" to="-127393551#1" type="bus_bus"/>
    <trip id="bus322" depart="322.00" from="69466369#2" to="127086388#2" type="bus_bus"/>
    <trip id="bus323" depart="323.00" from="69476871#1" to="127429176#1" type="bus_bus"/>
    <trip id="bus324" depart="324.00" from="127080332" to="126937643#2" type="bus_bus"/>
    <trip id="bus325" depart="325.00" from="-167086610" to="-126924158#2" type="bus_bus"/>
    <trip id="bus326" depart="326.00" from="93993070#0" to="127077802#2" type="bus_bus"/>
    <trip id="bus327" depart="327.00" from="456860529#0" to="126794870#0" type="bus_bus"/>