<?xml version="1.0" encoding="UTF-8"?>
<!-- generated on 2020-11-17 18:21:26.030789 by $Id$ v1_7_0+0890-63ce6de543
  options: <doubleminus>vehicle-class passenger <doubleminus>prefix car -n saopaulo.net.xml -l -e 5000 -o saopaulo_car.trips.xml
-->
<routes xmlns:xsi="http://www.w3.org/2001/XMLSchema-instance" xsi:noNamespaceSchemaLocation="http://sumo.dlr.de/xsd/routes_file.xsd">
    <vType id="car_passenger" vClass="passenger"/>
    <trip id="car0" depart="0.00" from="130777424" to="-126783833#0" type="car_passenger"/>
    <trip id="car1" depart="1.00" from="-93997228#3" to="-298831553#4" type="car_passenger"/>
    <trip id="car2" depart="2.00" from="300715135#1" to="151534275#1" type="car_passenger"/>
    <trip id="car3" depart="3.00" from="759041159#0" to="-127077801#1" type="car_passenger"/>
    <trip id="car4" depart="4.00" from="126937635" to="-126786489#2" type="car_passenger"/>
    <trip id="car5" depart="5.00" from="-373086966#1" to="127216227#1" type="car_passenger"/>
    <trip id="car6" depart="6.00" from="-126786470" to="-167086650#0" type="car_passenger"/>
    <trip id="car7" depart="7.00" from="130785115#3" to="127394435#2" type="car_passenger"/>
    <trip id="car8" depart="8.00" from="-377630727#4" to="127674085#1" type="car_passenger"/>
    <trip id="car9" depart="9.00" from="438472651#4" to="-111663938#0" type="car_passenger"/>
    <trip id="car10" depart="10.00" from="435864862#4" to="168230205#0" type="car_passenger"/>
    <trip id="car11" depart="11.00" from="126163252" to="-127671041#4" type="car_passenger"/>
    <trip id="car12" depart="12.00" from="94003572#0" to="111663936#6" type="car_passenger"/>
    <trip id="car13" depart="13.00" from="-127086393#5" to="-127088219#0" type="car_passenger"/>
    <trip id="car14" depart="14.00" from="642883023#1" to="127947944#1" type="car_passenger"/>
    <trip id="car15" depart="15.00" from="438021250#0" to="287600622#11" type="car_passenger"/>
    <trip id="car16" depart="16.00" from="127419721#0" to="94003606" type="car_passenger"/>
    <trip id="car17" depart="17.00" from="126786489#3" to="127419726#0" type="car_passenger"/>
    <trip id="car18" depart="18.00" from="457964229#0" to="127966376" type="car_passenger"/>
    <trip id="car19" depart="19.00" from="69421407#2" to="127559296" type="car_passenger"/>
    <trip id="car20" depart="20.00" from="240990502#2" to="-126820827" type="car_passenger"/>
    <trip id="car21" depart="21.00" from="-387044689" to="-93995202" type="car_passenger"/>
    <trip id="car22" depart="22.00" from="-127077791" to="-313159264#3" type="car_passenger"/>
    <trip id="car23" depart="23.00" from="-127216227#0" to="-764254532#1" type="car_passenger"/>
    <trip id="car24" depart="24.00" from="130662521#0" to="126748432#0" type="car_passenger"/>
    <trip id="car25" depart="25.00" from="126783833#3" to="-240990502#2" type="car_passenger"/>
    <trip id="car26" depart="26.00" from="-852586830#1" to="852610254#1" type="car_passenger"/>
    <trip id="car27" depart="27.00" from="130785112#2" to="127949579" type="car_passenger"/>
    <trip id="car28" depart="28.00" from="-130662521#2" to="287600622#10" type="car_passenger"/>
    <trip id="car29" depart="29.00" from="-127966358#0" to="126748454" type="car_passenger"/>
    <trip id="car30" depart="30.00" from="94016868#2" to="130662516#11" type="car_passenger"/>
    <trip id="car31" depart="31.00" from="127429167#0" to="166769342#0" type="car_passenger"/>
    <trip id="car32" depart="32.00" from="637694070" to="380300257#1" type="car_passenger"/>
    <trip id="car33" depart="33.00" from="-387044693" to="-126794866#0" type="car_passenger"/>
    <trip id="car34" depart="34.00" from="111663881#1" to="-604054749#0" type="car_passenger"/>
    <trip id="car35" depart="35.00" from="-300712495#3" to="859217988" type="car_passenger"/>
    <trip id="car36" depart="36.00" from="69476877#0" to="-94012445#0" type="car_passenger"/>
    <trip id="car37" depart="37.00" from="130795061#3" to="126786488" type="car_passenger"/>
    <trip id="car38" depart="38.00" from="764194635#0" to="127069581#2" type="car_passenger"/>
    <trip id="car39" depart="39.00" from="-849946428#0" to="-390733906#2" type="car_passenger"/>
    <trip id="car40" depart="40.00" from="127559278#1" to="-456847835" type="car_passenger"/>
    <trip id="car41" depart="41.00" from="127741430" to="759236599#0" type="car_passenger"/>
    <trip id="car42" depart="42.00" from="126795961#3" to="-277426866#0" type="car_passenger"/>
    <trip id="car43" depart="43.00" from="94016891#1" to="127217130#2" type="car_passenger"/>
    <trip id="car44" depart="44.00" from="-127086380#2" to="-126821446#2" type="car_passenger"/>
    <trip id="car45" depart="45.00" from="-127260827#6" to="130659494#0" type="car_passenger"/>
    <trip id="car46" depart="46.00" from="396906184#13" to="126820818#2" type="car_passenger"/>
    <trip id="car47" depart="47.00" from="-127069574#1" to="126748459" type="car_passenger"/>
    <trip id="car48" depart="48.00" from="94016883" to="127393518" type="car_passenger"/>
    <trip id="car49" depart="49.00" from="94003600#1" to="675089633#0" type="car_passenger"/>
    <trip id="car50" depart="50.00" from="-126746226#1" to="27017389#1" type="car_passenger"/>
    <trip id="car51" depart="51.00" from="167086610" to="127393559#1" type="car_passenger"/>
    <trip id="car52" depart="52.00" from="-852586830#0" to="130662516#3" type="car_passenger"/>
    <trip id="car53" depart="53.00" from="-127260836#0" to="126924175" type="car_passenger"/>
    <trip id="car54" depart="54.00" from="127072492#0" to="93997237#1" type="car_passenger"/>
    <trip id="car55" depart="55.00" from="69476876#1" to="-456847835" type="car_passenger"/>
    <trip id="car56" depart="56.00" from="127260819#11" to="-130662518#4" type="car_passenger"/>
    <trip id="car57" depart="57.00" from="764194628#3" to="69421416" type="car_passenger"/>
    <trip id="car58" depart="58.00" from="-94012445#0" to="130662515#7" type="car_passenger"/>
    <trip id="car59" depart="59.00" from="130657641#10" to="-127671030#3" type="car_passenger"/>
    <trip id="car60" depart="60.00" from="320040190#5" to="127393568#0" type="car_passenger"/>
    <trip id="car61" depart="61.00" from="387044692" to="127393529" type="car_passenger"/>
    <trip id="car62" depart="62.00" from="-111663890" to="-94016877#2" type="car_passenger"/>
    <trip id="car63" depart="63.00" from="-126748446#1" to="835004629" type="car_passenger"/>
    <trip id="car64" depart="64.00" from="69476906" to="457964229#0" type="car_passenger"/>
    <trip id="car65" depart="65.00" from="-94016887#1" to="-126937632" type="car_passenger"/>
    <trip id="car66" depart="66.00" from="69476879#2" to="93995208" type="car_passenger"/>
    <trip id="car67" depart="67.00" from="-127077810#5" to="127086378#2" type="car_passenger"/>
    <trip id="car68" depart="68.00" from="-127069589#3" to="313161821#0" type="car_passenger"/>
    <trip id="car69" depart="69.00" from="373087179#0" to="-127393568#1" type="car_passenger"/>
    <trip id="car70" depart="70.00" from="127086385" to="127419721#2" type="car_passenger"/>
    <trip id="car71" depart="71.00" from="-849946428#1" to="69421432#1" type="car_passenger"/>
    <trip id="car72" depart="72.00" from="126937643#3" to="-27016998#4" type="car_passenger"/>
    <trip id="car73" depart="73.00" from="127419726#3" to="287600622#11" type="car_passenger"/>
    <trip id="car74" depart="74.00" from="-27017209#0" to="-94012417#5" type="car_passenger"/>
    <trip id="car75" depart="75.00" from="94016877#1" to="130662522#4" type="car_passenger"/>
    <trip id="car76" depart="76.00" from="127069566" to="127260824#2" type="car_passenger"/>
    <trip id="car77" depart="77.00" from="-127393551#1" to="-300712495#1" type="car_passenger"/>
    <trip id="car78" depart="78.00" from="126158518#0" to="127671047#0" type="car_passenger"/>
    <trip id="car79" depart="79.00" from="-387044707" to="-277426866#6" type="car_passenger"/>
    <trip id="car80" depart="80.00" from="-127072470#2" to="130659496#6" type="car_passenger"/>
    <trip id="car81" depart="81.00" from="-387044693" to="760833521#1" type="car_passenger"/>
    <trip id="car82" depart="82.00" from="69421402#1" to="-127069581#3" type="car_passenger"/>
    <trip id="car83" depart="83.00" from="-432968048#1" to="151534239#7" type="car_passenger"/>
    <trip id="car84" depart="84.00" from="-300719466#0" to="-127394435#0" type="car_passenger"/>
    <trip id="car85" depart="85.00" from="853212813#0" to="127429168" type="car_passenger"/>
    <trip id="car86" depart="86.00" from="127086378#0" to="387044708" type="car_passenger"/>
    <trip id="car87" depart="87.00" from="438021252" to="-151534248#1" type="car_passenger"/>
    <trip id="car88" depart="88.00" from="-127216214#1" to="126822556" type="car_passenger"/>
    <trip id="car89" depart="89.00" from="126937645" to="127072492#0" type="car_passenger"/>
    <trip id="car90" depart="90.00" from="287600622#23" to="151534245#6" type="car_passenger"/>
    <trip id="car91" depart="91.00" from="94012426#1" to="-127088225#0" type="car_passenger"/>
    <trip id="car92" depart="92.00" from="126820814#0" to="112545418#1" type="car_passenger"/>
    <trip id="car93" depart="93.00" from="69421407#2" to="-396906181" type="car_passenger"/>
    <trip id="car94" depart="94.00" from="-168230204#4" to="126986687#1" type="car_passenger"/>
    <trip id="car95" depart="95.00" from="126937635" to="-764254546#0" type="car_passenger"/>
    <trip id="car96" depart="96.00" from="-490443020#1" to="764254546#5" type="car_passenger"/>
    <trip id="car97" depart="97.00" from="127069577#5" to="675089633#1" type="car_passenger"/>
    <trip id="car98" depart="98.00" from="127419742#2" to="-126924148#0" type="car_passenger"/>
    <trip id="car99" depart="99.00" from="94016895#1" to="604054749#1" type="car_passenger"/>
    <trip id="car100" depart="100.00" from="94003598#2" to="764254557#7" type="car_passenger"/>
    <trip id="car101" depart="101.00" from="642883031#0" to="-127947954#1" type="car_passenger"/>
    <trip id="car102" depart="102.00" from="127216212#2" to="-27017001#1" type="car_passenger"/>
    <trip id="car103" depart="103.00" from="126795964" to="-126937646" type="car_passenger"/>
    <trip id="car104" depart="104.00" from="126786490" to="94012426#2" type="car_passenger"/>
    <trip id="car105" depart="105.00" from="-849946428#1" to="387044703" type="car_passenger"/>
    <trip id="car106" depart="106.00" from="127072497#0" to="126820819#0" type="car_passenger"/>
    <trip id="car107" depart="107.00" from="94003572#2" to="94016883" type="car_passenger"/>
    <trip id="car108" depart="108.00" from="127429164" to="27017209#0" type="car_passenger"/>
    <trip id="car109" depart="109.00" from="-127741429" to="-93997237#2" type="car_passenger"/>
    <trip id="car110" depart="110.00" from="94003598#2" to="127560405" type="car_passenger"/>
    <trip id="car111" depart="111.00" from="127419729#1" to="300715138#0" type="car_passenger"/>
    <trip id="car112" depart="112.00" from="-126924183#7" to="127666452#2" type="car_passenger"/>
    <trip id="car113" depart="113.00" from="127260821#3" to="642883026#0" type="car_passenger"/>
    <trip id="car114" depart="114.00" from="-127947951#0" to="94003585#3" type="car_passenger"/>
    <trip id="car115" depart="115.00" from="-127077791" to="-130785114" type="car_passenger"/>
    <trip id="car116" depart="116.00" from="127949575" to="151534264#0" type="car_passenger"/>
    <trip id="car117" depart="117.00" from="-396906181" to="-127262672#0" type="car_passenger"/>
    <trip id="car118" depart="118.00" from="758913934#1" to="-390733906#0" type="car_passenger"/>
    <trip id="car119" depart="119.00" from="127949572" to="127966385" type="car_passenger"/>
    <trip id="car120" depart="120.00" from="126924183#10" to="127666448#1" type="car_passenger"/>
    <trip id="car121" depart="121.00" from="127393554" to="852393309" type="car_passenger"/>
    <trip id="car122" depart="122.00" from="-27017393" to="27016999#0" type="car_passenger"/>
    <trip id="car123" depart="123.00" from="-435864862#0" to="126786489#0" type="car_passenger"/>
    <trip id="car124" depart="124.00" from="151534286#3" to="-94003595#15" type="car_passenger"/>
    <trip id="car125" depart="125.00" from="111663898#0" to="300719462#1" type="car_passenger"/>
    <trip id="car126" depart="126.00" from="-127072481" to="127069580#4" type="car_passenger"/>
    <trip id="car127" depart="127.00" from="94016895#1" to="94016887#0" type="car_passenger"/>
    <trip id="car128" depart="128.00" from="-127072482#4" to="-27017001#1" type="car_passenger"/>
    <trip id="car129" depart="129.00" from="-849946428#1" to="849946428#1" type="car_passenger"/>
    <trip id="car130" depart="130.00" from="706082728#10" to="69476875#1" type="car_passenger"/>
    <trip id="car131" depart="131.00" from="126783832#1" to="-127674091#0" type="car_passenger"/>
    <trip id="car132" depart="132.00" from="606167756#0" to="194730486#16" type="car_passenger"/>
    <trip id="car133" depart="133.00" from="130657641#4" to="94012451#2" type="car_passenger"/>
    <trip id="car134" depart="134.00" from="130795061#0" to="-111663938#0" type="car_passenger"/>
    <trip id="car135" depart="135.00" from="456402940" to="-94003595#12" type="car_passenger"/>
    <trip id="car136" depart="136.00" from="151534245#11" to="853265244" type="car_passenger"/>
    <trip id="car137" depart="137.00" from="-127419725#1" to="-127260832" type="car_passenger"/>
    <trip id="car138" depart="138.00" from="-127260821#2" to="127419726#5" type="car_passenger"/>
    <trip id="car139" depart="139.00" from="-858188176#0" to="127947951#2" type="car_passenger"/>
    <trip id="car140" depart="140.00" from="277373177" to="-170053649#1" type="car_passenger"/>
    <trip id="car141" depart="141.00" from="130662519#1" to="-456851874#0" type="car_passenger"/>
    <trip id="car142" depart="142.00" from="127216219#2" to="760833521#1" type="car_passenger"/>
    <trip id="car143" depart="143.00" from="639732160" to="-127086376#2" type="car_passenger"/>
    <trip id="car144" depart="144.00" from="126937645" to="-764194623#3" type="car_passenger"/>
    <trip id="car145" depart="145.00" from="-111663915#1" to="373252786#1" type="car_passenger"/>
    <trip id="car146" depart="146.00" from="130662522#0" to="-456847835" type="car_passenger"/>
    <trip id="car147" depart="147.00" from="300715136#9" to="127419726#0" type="car_passenger"/>
    <trip id="car148" depart="148.00" from="126985748#0" to="-125984211#0" type="car_passenger"/>
    <trip id="car149" depart="149.00" from="-127072492#1" to="69618399" type="car_passenger"/>
    <trip id="car150" depart="150.00" from="760675664#0" to="127419714" type="car_passenger"/>
    <trip id="car151" depart="151.00" from="606167756#0" to="127665404#6" type="car_passenger"/>
    <trip id="car152" depart="152.00" from="-127671041#10" to="-127393564#0" type="car_passenger"/>
    <trip id="car153" depart="153.00" from="-94016895#0" to="759236600#10" type="car_passenger"/>
    <trip id="car154" depart="154.00" from="396906184#9" to="675089633#0" type="car_passenger"/>
    <trip id="car155" depart="155.00" from="759236600#15" to="-240990502#2" type="car_passenger"/>
    <trip id="car156" depart="156.00" from="-457967740#1" to="-127216223#3" type="car_passenger"/>
    <trip id="car157" depart="157.00" from="387044708" to="706082728#1" type="car_passenger"/>
    <trip id="car158" depart="158.00" from="126820823#0" to="130657641#1" type="car_passenger"/>
    <trip id="car159" depart="159.00" from="-127734296#4" to="836327473" type="car_passenger"/>
    <trip id="car160" depart="160.00" from="69421419#1" to="94012390#2" type="car_passenger"/>
    <trip id="car161" depart="161.00" from="438473456" to="69476879#0" type="car_passenger"/>
    <trip id="car162" depart="162.00" from="-126783830" to="287600627#1" type="car_passenger"/>
    <trip id="car163" depart="163.00" from="126158491#2" to="838077115" type="car_passenger"/>
    <trip id="car164" depart="164.00" from="430053773#1" to="69421397#8" type="car_passenger"/>
    <trip id="car165" depart="165.00" from="438473112#1" to="-544229532" type="car_passenger"/>
    <trip id="car166" depart="166.00" from="390733906#3" to="-127217130#0" type="car_passenger"/>
    <trip id="car167" depart="167.00" from="69476871#1" to="649723677#4" type="car_passenger"/>
    <trip id="car168" depart="168.00" from="-380300255#2" to="438473457#0" type="car_passenger"/>
    <trip id="car169" depart="169.00" from="127077791" to="-94012374#0" type="car_passenger"/>
    <trip id="car170" depart="170.00" from="396906184#5" to="-300715140#1" type="car_passenger"/>
    <trip id="car171" depart="171.00" from="-126783827#2" to="-154538353" type="car_passenger"/>
    <trip id="car172" depart="172.00" from="126158485#3" to="69421397#9" type="car_passenger"/>
    <trip id="car173" depart="173.00" from="94003595#9" to="-764254546#4" type="car_passenger"/>
    <trip id="car174" depart="174.00" from="130777426" to="126794866#2" type="car_passenger"/>
    <trip id="car175" depart="175.00" from="94012417#1" to="127393555" type="car_passenger"/>
    <trip id="car176" depart="176.00" from="858188176#0" to="-127260832" type="car_passenger"/>
    <trip id="car177" depart="177.00" from="94003598#6" to="-130662518#3" type="car_passenger"/>
    <trip id="car178" depart="178.00" from="94003586#6" to="-456861911#0" type="car_passenger"/>
    <trip id="car179" depart="179.00" from="-127260827#13" to="126924175" type="car_passenger"/>
    <trip id="car180" depart="180.00" from="287600622#22" to="-94012426#2" type="car_passenger"/>
    <trip id="car181" depart="181.00" from="127966376" to="127228214#1" type="car_passenger"/>
    <trip id="car182" depart="182.00" from="126794876#0" to="127559285" type="car_passenger"/>
    <trip id="car183" depart="183.00" from="-675089633#0" to="240990502#1" type="car_passenger"/>
    <trip id="car184" depart="184.00" from="-111663895#1" to="764254557#12" type="car_passenger"/>
    <trip id="car185" depart="185.00" from="127419726#0" to="27017212#2" type="car_passenger"/>
    <trip id="car186" depart="186.00" from="300715138#0" to="151534245#0" type="car_passenger"/>
    <trip id="car187" depart="187.00" from="126783824" to="-127069580#3" type="car_passenger"/>
    <trip id="car188" depart="188.00" from="151534245#4" to="100223011#2" type="car_passenger"/>
    <trip id="car189" depart="189.00" from="100223013#3" to="637694069#4" type="car_passenger"/>
    <trip id="car190" depart="190.00" from="277426866#0" to="-94003595#3" type="car_passenger"/>
    <trip id="car191" depart="191.00" from="-94016895#1" to="126794882#8" type="car_passenger"/>
    <trip id="car192" depart="192.00" from="126820813" to="-93997233#5" type="car_passenger"/>
    <trip id="car193" depart="193.00" from="-127394435#0" to="126820814#1" type="car_passenger"/>
    <trip id="car194" depart="194.00" from="859217988" to="151534282#0" type="car_passenger"/>
    <trip id="car195" depart="195.00" from="759236600#8" to="127963206#0" type="car_passenger"/>
    <trip id="car196" depart="196.00" from="-94012453#3" to="127419718#6" type="car_passenger"/>
    <trip id="car197" depart="197.00" from="-111663881#1" to="-858188173" type="car_passenger"/>
    <trip id="car198" depart="198.00" from="126986684#0" to="127560406#1" type="car_passenger"/>
    <trip id="car199" depart="199.00" from="130795061#1" to="127072481" type="car_passenger"/>
    <trip id="car200" depart="200.00" from="127069577#0" to="-27017001#1" type="car_passenger"/>
    <trip id="car201" depart="201.00" from="127086378#6" to="759236600#15" type="car_passenger"/>
    <trip id="car202" depart="202.00" from="396906184#8" to="-127955330" type="car_passenger"/>
    <trip id="car203" depart="203.00" from="-127077805#1" to="127260819#9" type="car_passenger"/>
    <trip id="car204" depart="204.00" from="130662518#0" to="111663915#1" type="car_passenger"/>
    <trip id="car205" depart="205.00" from="456847835" to="300715145" type="car_passenger"/>
    <trip id="car206" depart="206.00" from="154538331#0" to="-300712495#1" type="car_passenger"/>
    <trip id="car207" depart="207.00" from="-27016998#8" to="-126783829#2" type="car_passenger"/>
    <trip id="car208" depart="208.00" from="-456402937#4" to="127077797#3" type="car_passenger"/>
    <trip id="car209" depart="209.00" from="642883031#13" to="-127069589#1" type="car_passenger"/>
    <trip id="car210" depart="210.00" from="126924158#1" to="130659496#11" type="car_passenger"/>
    <trip id="car211" depart="211.00" from="-240990502#1" to="168230204#2" type="car_passenger"/>
    <trip id="car212" depart="212.00" from="127217123#0" to="-387044703" type="car_passenger"/>
    <trip id="car213" depart="213.00" from="134834985#2" to="-111663936#1" type="car_passenger"/>
    <trip id="car214" depart="214.00" from="300719466#7" to="373086966#5" type="car_passenger"/>
    <trip id="car215" depart="215.00" from="-127260818#0" to="126820825#0" type="car_passenger"/>
    <trip id="car216" depart="216.00" from="-130795054#4" to="93997239#4" type="car_passenger"/>
    <trip id="car217" depart="217.00" from="127393538#0" to="-126822553#9" type="car_passenger"/>
    <trip id="car218" depart="218.00" from="-456861911#4" to="637694069#4" type="car_passenger"/>
    <trip id="car219" depart="219.00" from="127072498#1" to="396906184#6" type="car_passenger"/>
    <trip id="car220" depart="220.00" from="151534270" to="94012453#0" type="car_passenger"/>
    <trip id="car221" depart="221.00" from="127949576" to="93997232#0" type="car_passenger"/>
    <trip id="car222" depart="222.00" from="758913936#0" to="127955323#0" type="car_passenger"/>
    <trip id="car223" depart="223.00" from="277426863#2" to="127216224#7" type="car_passenger"/>
    <trip id="car224" depart="224.00" from="490443020#1" to="127419718#6" type="car_passenger"/>
    <trip id="car225" depart="225.00" from="759236600#1" to="300715136#11" type="car_passenger"/>
    <trip id="car226" depart="226.00" from="127086381#1" to="-456402938" type="car_passenger"/>
    <trip id="car227" depart="227.00" from="-456851874#1" to="130662514#3" type="car_passenger"/>
    <trip id="car228" depart="228.00" from="373087179#0" to="127260827#6" type="car_passenger"/>
    <trip id="car229" depart="229.00" from="130662515#6" to="-759041159#0" type="car_passenger"/>
    <trip id="car230" depart="230.00" from="-127072501#0" to="-853265244" type="car_passenger"/>
    <trip id="car231" depart="231.00" from="-858188174" to="-94016874#2" type="car_passenger"/>
    <trip id="car232" depart="232.00" from="127419727#1" to="-127419723" type="car_passenger"/>
    <trip id="car233" depart="233.00" from="-387044711#7" to="168230202#1" type="car_passenger"/>
    <trip id="car234" depart="234.00" from="246355235#2" to="-127063701" type="car_passenger"/>
    <trip id="car235" depart="235.00" from="126820825#1" to="127393575" type="car_passenger"/>
    <trip id="car236" depart="236.00" from="126924165#1" to="-237521935#0" type="car_passenger"/>
    <trip id="car237" depart="237.00" from="126924183#3" to="760833521#0" type="car_passenger"/>
    <trip id="car238" depart="238.00" from="127741429" to="168230203#4" type="car_passenger"/>
    <trip id="car239" depart="239.00" from="691048388#1" to="320040190#2" type="car_passenger"/>
    <trip id="car240" depart="240.00" from="126786493#1" to="-111663936#3" type="car_passenger"/>
    <trip id="car241" depart="241.00" from="126748440#0" to="300719463#3" type="car_passenger"/>
    <trip id="car242" depart="242.00" from="649723677#0" to="93997235" type="car_passenger"/>
    <trip id="car243" depart="243.00" from="126924183#1" to="300715136#9" type="car_passenger"/>
    <trip id="car244" depart="244.00" from="127419732#8" to="127947941#3" type="car_passenger"/>
    <trip id="car245" depart="245.00" from="-377630727#5" to="-277426866#1" type="car_passenger"/>
    <trip id="car246" depart="246.00" from="127062184#4" to="-126786486#2" type="car_passenger"/>
    <trip id="car247" depart="247.00" from="126158507#0" to="151534285#4" type="car_passenger"/>
    <trip id="car248" depart="248.00" from="126820818#0" to="-127947951#0" type="car_passenger"/>
    <trip id="car249" depart="249.00" from="127077810#2" to="-127393564#0" type="car_passenger"/>
    <trip id="car250" depart="250.00" from="130661470#1" to="-126786473" type="car_passenger"/>
    <trip id="car251" depart="251.00" from="126794896#0" to="127419743#0" type="car_passenger"/>
    <trip id="car252" depart="252.00" from="-126786481" to="130662516#9" type="car_passenger"/>
    <trip id="car253" depart="253.00" from="-127419726#3" to="127069589#4" type="car_passenger"/>
    <trip id="car254" depart="254.00" from="-126822555#0" to="126748453" type="car_passenger"/>
    <trip id="car255" depart="255.00" from="-300712495#4" to="-94016895#1" type="car_passenger"/>
    <trip id="car256" depart="256.00" from="320040190#2" to="126748453" type="car_passenger"/>
    <trip id="car257" depart="257.00" from="300724989#2" to="457964229#0" type="car_passenger"/>
    <trip id="car258" depart="258.00" from="-625124828#0" to="-127072498#0" type="car_passenger"/>
    <trip id="car259" depart="259.00" from="-126748446#1" to="127393568#0" type="car_passenger"/>
    <trip id="car260" depart="260.00" from="94021159#3" to="126158491#2" type="car_passenger"/>
    <trip id="car261" depart="261.00" from="130785115#5" to="387044687" type="car_passenger"/>
    <trip id="car262" depart="262.00" from="130795052#1" to="300719465#0" type="car_passenger"/>
    <trip id="car263" depart="263.00" from="93997233#2" to="-168230203#0" type="car_passenger"/>
    <trip id="car264" depart="264.00" from="-126748451" to="-127671021" type="car_passenger"/>
    <trip id="car265" depart="265.00" from="-127393572" to="151534239#8" type="car_passenger"/>
    <trip id="car266" depart="266.00" from="127559296" to="-27017390#0" type="car_passenger"/>
    <trip id="car267" depart="267.00" from="194730486#20" to="320040190#4" type="car_passenger"/>
    <trip id="car268" depart="268.00" from="-130662515#0" to="127949574" type="car_passenger"/>
    <trip id="car269" depart="269.00" from="300719464" to="-127260827#9" type="car_passenger"/>
    <trip id="car270" depart="270.00" from="456847835" to="94003586#7" type="car_passenger"/>
    <trip id="car271" depart="271.00" from="-127260827#12" to="-126783833#3" type="car_passenger"/>
    <trip id="car272" depart="272.00" from="100223007#2" to="151534282#0" type="car_passenger"/>
    <trip id="car273" depart="273.00" from="94003572#5" to="126786490" type="car_passenger"/>
    <trip id="car274" depart="274.00" from="27017214#0" to="-127072475#3" type="car_passenger"/>
    <trip id="car275" depart="275.00" from="168230205#0" to="130659494#0" type="car_passenger"/>
    <trip id="car276" depart="276.00" from="-127216228#1" to="377630727#12" type="car_passenger"/>
    <trip id="car277" depart="277.00" from="642883031#2" to="127741452" type="car_passenger"/>
    <trip id="car278" depart="278.00" from="-127393551#1" to="94012421#1" type="car_passenger"/>
    <trip id="car279" depart="279.00" from="387612245#14" to="126158485#8" type="car_passenger"/>
    <trip id="car280" depart="280.00" from="126985752" to="126748441#0" type="car_passenger"/>
    <trip id="car281" depart="281.00" from="127260824#7" to="125698761#0" type="car_passenger"/>
    <trip id="car282" depart="282.00" from="642883031#13" to="456402940" type="car_passenger"/>
    <trip id="car283" depart="283.00" from="-127228213#2" to="94003585#3" type="car_passenger"/>
    <trip id="car284" depart="284.00" from="130662521#0" to="457964212#0" type="car_passenger"/>
    <trip id="car285" depart="285.00" from="258250060#1" to="126924177#6" type="car_passenger"/>
    <trip id="car286" depart="286.00" from="300712495#0" to="94003595#0" type="car_passenger"/>
    <trip id="car287" depart="287.00" from="-853265244" to="430056368" type="car_passenger"/>
    <trip id="car288" depart="288.00" from="127419726#0" to="127086372#1" type="car_passenger"/>
    <trip id="car289" depart="289.00" from="127062184#3" to="287600622#16" type="car_passenger"/>
    <trip id="car290" depart="290.00" from="-852610254#1" to="640085826" type="car_passenger"/>
    <trip id="car291" depart="291.00" from="562300159" to="-127077796#1" type="car_passenger"/>
    <trip id="car292" depart="292.00" from="706082728#12" to="-387044701" type="car_passenger"/>
    <trip id="car293" depart="293.00" from="127077802#1" to="127949583" type="car_passenger"/>
    <trip id="car294" depart="294.00" from="126786490" to="-126786486#0" type="car_passenger"/>
    <trip id="car295" depart="295.00" from="642883031#4" to="-130777424" type="car_passenger"/>
    <trip id="car296" depart="296.00" from="-300715138#0" to="396906184#16" type="car_passenger"/>
    <trip id="car297" depart="297.00" from="126163252" to="69476877#0" type="car_passenger"/>
    <trip id="car298" depart="298.00" from="237521935#0" to="-764194623#2" type="car_passenger"/>
    <trip id="car299" depart="299.00" from="-125984211#1" to="93997229#0" type="car_passenger"/>
    <trip id="car300" depart="300.00" from="-127077810#5" to="27017388#1" type="car_passenger"/>
    <trip id="car301" depart="301.00" from="127216220" to="300724989#2" type="car_passenger"/>
    <trip id="car302" depart="302.00" from="168230205#0" to="130662518#4" type="car_passenger"/>
    <trip id="car303" depart="303.00" from="127216224#8" to="390733906#3" type="car_passenger"/>
    <trip id="car304" depart="304.00" from="-127088219#0" to="-287600634#0" type="car_passenger"/>
    <trip id="car305" depart="305.00" from="170053648#0" to="-94012390#2" type="car_passenger"/>
    <trip id="car306" depart="306.00" from="127734295#0" to="127077792" type="car_passenger"/>
    <trip id="car307" depart="307.00" from="127394435#0" to="126820825#2" type="car_passenger"/>