<?xml version="1.0" encoding="UTF-8"?>

<!-- generated on Wed Nov 11 21:45:21 2020 by Eclipse SUMO polyconvert Version v1_7_0+0890-63ce6de543
<configuration xmlns:xsi="http://www.w3.org/2001/XMLSchema-instance" xsi:noNamespaceSchemaLocation="http://sumo.dlr.de/xsd/polyconvertConfiguration.xsd">

    <input>
        <osm-files value="map.osm"/>
    </input>

    <output>
        <output-file value="saopaulo.poly.xml"/>
    </output>

    <projection>
        <proj.scale value="1"/>
        <proj.utm value="true"/>
    </projection>

    <processing>
        <poi-layer-offset value="5"/>
    </processing>

</configuration>
-->

<additional xmlns:xsi="http://www.w3.org/2001/XMLSchema-instance" xsi:noNamespaceSchemaLocation="http://sumo.dlr.de/xsd/additional_file.xsd">
    <location netOffset="0.00,0.00" convBoundary="321498.73,-2640925.56,352132.57,-2596298.81" origBoundary="-46.749664,-23.872841,-46.447835,-23.470037" projParameter="+proj=utm +zone=23 +ellps=WGS84 +datum=WGS84 +units=m +no_defs"/>

    <poly id="112414323" type="building" color="255,230,230" fill="1" layer="-1.00" shape="341450.266565,-2612033.472183 341481.390689,-2612007.008262 341519.674229,-2612051.512283 341535.306960,-2612038.207635 341541.012085,-2612044.823853 341555.158442,-2612032.786837 341562.052410,-2612040.807743 341571.608133,-2612032.685741 341577.830175,-2612039.916555 341590.035190,-2612029.539742 341596.257343,-2612036.781637 341608.593703,-2612026.281591 341597.503551,-2612013.388954 341613.186931,-2612000.039549 341684.574697,-2612083.013310 341573.901636,-2612177.177485 341450.266565,-2612033.472183"/>
    <poly id="112545309" type="building" color="255,230,230" fill="1" layer="-1.00" shape="342612.129142,-2612012.000107 342688.030218,-2611897.010832 342879.057344,-2612021.682165 342811.288870,-2612124.345070 342750.220796,-2612084.491277 342742.087508,-2612096.816657 342612.129142,-2612012.000107"/>
    <poly id="112545368" type="building" color="255,230,230" fill="1" layer="-1.00" shape="342572.943203,-2612263.755954 342832.396376,-2612215.607080 342849.902916,-2612308.912452 342590.440827,-2612357.027999 342572.943203,-2612263.755954"/>
    <poly id="112545395" type="building" color="255,230,230" fill="1" layer="-1.00" shape="342538.345629,-2612271.073267 342558.437324,-2612267.113126 342570.865683,-2612329.408067 342550.784276,-2612333.368086 342538.345629,-2612271.073267"/>
    <poly id="151534221" type="building" color="255,230,230" fill="1" layer="-1.00" shape="340563.563496,-2611853.132175 340473.570152,-2611991.079966 340500.282038,-2612008.308558 340482.998051,-2612034.789500 340497.263552,-2612043.991902 340478.755309,-2612072.368982 340492.794716,-2612081.429875 340483.259505,-2612096.042339 340498.295817,-2612105.745760 340507.389202,-2612091.791559 340548.099026,-2612118.048370 340543.993975,-2612124.350593 340585.453853,-2612151.086600 340589.950455,-2612144.193137 340644.185244,-2612179.173481 340652.706760,-2612166.111620 340720.456171,-2612209.804608 340725.053281,-2612202.766117 340752.853942,-2612220.703115 340757.169825,-2612214.077479 340798.228299,-2612240.563705 340806.970768,-2612227.167280 340847.484315,-2612253.294109 340947.145331,-2612100.535777 340563.563496,-2611853.132175"/>
    <poly id="151534225" type="leisure" color="207,245,201" fill="1" layer="-2.00" shape="341077.723892,-2614475.467637 341071.120051,-2614493.049184 341105.031021,-2614505.648262 341111.645218,-2614488.077694 341105.641681,-2614485.850620 341098.613566,-2614483.236019 341097.353370,-2614482.762459 341091.667428,-2614480.653752 341077.723892,-2614475.467637"/>
    <poly id="151534230" type="building" color="255,230,230" fill="1" layer="-1.00" shape="341159.977853,-2614103.094323 341185.198462,-2614098.123756 341193.046875,-2614137.620191 341167.836415,-2614142.579563 341159.977853,-2614103.094323"/>
    <poly id="151534232" type="building" color="255,230,230" fill="1" layer="-1.00" shape="341147.492403,-2614256.087119 341187.733374,-2614256.811520 341189.619630,-2614154.591154 341149.378257,-2614153.855658 341147.492403,-2614256.087119"/>
    <poly id="151534287" type="leisure" color="207,245,201" fill="1" layer="-2.00" shape="342123.562590,-2612173.844059 342180.353703,-2612166.285682 342193.381099,-2612263.050065 342136.590483,-2612270.619487 342123.562590,-2612173.844059"/>
    <poly id="151534287#1" type="sport" color="79,230,125" fill="1" layer="-2.00" shape="342123.562590,-2612173.844059 342180.353703,-2612166.285682 342193.381099,-2612263.050065 342136.590483,-2612270.619487 342123.562590,-2612173.844059"/>
    <poly id="151534293" type="leisure" color="207,245,201" fill="1" layer="-2.00" shape="340835.535727,-2614078.569018 340908.705399,-2614061.567632 340932.245795,-2614167.254027 340860.199188,-2614186.136893 340835.535727,-2614078.569018"/>
    <poly id="151534293#1" type="sport" color="79,230,125" fill="1" layer="-2.00" shape="340835.535727,-2614078.569018 340908.705399,-2614061.567632 340932.245795,-2614167.254027 340860.199188,-2614186.136893 340835.535727,-2614078.569018"/>
    <poly id="151534294" type="leisure" color="207,245,201" fill="1" layer="-2.00" shape="341054.386659,-2614497.761319 341101.331986,-2614514.515345 341068.026832,-2614597.708249 341021.894629,-2614578.774777 341054.386659,-2614497.761319"/>
    <poly id="151534294#1" type="sport" color="79,230,125" fill="1" layer="-2.00" shape="341054.386659,-2614497.761319 341101.331986,-2614514.515345 341068.026832,-2614597.708249 341021.894629,-2614578.774777 341054.386659,-2614497.761319"/>
    <poly id="151534296" type="amenity" color="237,199,199" fill="1" layer="-1.00" shape="341146.212499,-2614257.551888 341138.398525,-2614288.635892 341176.432982,-2614303.183718 341193.009581,-2614260.641353 341195.630214,-2614235.195748 341190.375940,-2614235.252989 341189.904913,-2614258.515557 341146.212499,-2614257.551888"/>
    <poly id="154538322" type="building" color="255,230,230" fill="1" layer="-1.00" shape="340851.272439,-2615567.175562 340813.145070,-2615520.523335 340775.239786,-2615551.161249 340813.377292,-2615597.802196 340851.272439,-2615567.175562"/>
    <poly id="154538322#1" type="shop" color="237,199,255" fill="1" layer="-1.00" shape="340851.272439,-2615567.175562 340813.145070,-2615520.523335 340775.239786,-2615551.161249 340813.377292,-2615597.802196 340851.272439,-2615567.175562"/>
    <poly id="154538407" type="leisure" color="207,245,201" fill="1" layer="-2.00" shape="340945.321877,-2615655.047505 340992.925297,-2615698.761400 341055.134985,-2615631.798674 341007.541643,-2615588.073392 340945.321877,-2615655.047505"/>
    <poly id="154538407#1" type="sport" color="79,230,125" fill="1" layer="-2.00" shape="340945.321877,-2615655.047505 340992.925297,-2615698.761400 341055.134985,-2615631.798674 341007.541643,-2615588.073392 340945.321877,-2615655.047505"/>
    <poly id="166859403" type="building" color="255,230,230" fill="1" layer="-1.00" shape="340208.683645,-2611952.148161 340216.767484,-2612040.792456 340289.549487,-2612037.813836 340290.334664,-2612060.132414 340401.426762,-2612056.192382 340404.102834,-2612100.252611 340445.877771,-2612096.041304 340437.317672,-2611933.853253 340400.116919,-2611936.441872 340393.082052,-2611943.595733 340330.934552,-2611947.598153 340325.496630,-2611951.467454 340280.423686,-2611954.629830 340272.921594,-2611949.861107 340208.683645,-2611952.148161"/>
    <poly id="166859403#1" type="shop" color="237,199,255" fill="1" layer="-1.00" shape="340208.683645,-2611952.148161 340216.767484,-2612040.792456 340289.549487,-2612037.813836 340290.334664,-2612060.132414 340401.426762,-2612056.192382 340404.102834,-2612100.252611 340445.877771,-2612096.041304 340437.317672,-2611933.853253 340400.116919,-2611936.441872 340393.082052,-2611943.595733 340330.934552,-2611947.598153 340325.496630,-2611951.467454 340280.423686,-2611954.629830 340272.921594,-2611949.861107 340208.683645,-2611952.148161"/>
    <poly id="166859405" type="building" color="255,230,230" fill="1" layer="-1.00" shape="340354.142419,-2611787.244291 340364.547042,-2611937.916322 340436.180026,-2611930.609650 340430.041919,-2611799.526896 340421.298696,-2611800.718930 340421.126010,-2611784.927902 340354.142419,-2611787.244291"/>
    <poly id="167086608" type="shop" color="237,199,255" fill="1" layer="-1.00" shape="338766.582548,-2613627.756115 338750.867394,-2613641.541182 338740.598738,-2613654.169596 338739.603283,-2613662.885626 338735.933693,-2613677.080176 338729.819127,-2613684.258013 338726.809254,-2613693.516854 338724.760031,-2613706.597052 338727.104198,-2613720.182410 338733.153591,-2613737.558767 338740.972511,-2613751.626252 338754.980008,-2613766.134753 338779.287588,-2613786.554216 338804.966532,-2613797.190326 338819.398538,-2613800.264699 338841.233684,-2613794.574386 338849.483107,-2613797.750353 338858.603053,-2613796.597421 338886.445922,-2613789.755422 338913.693983,-2613778.024862 338925.255149,-2613769.701575 338933.900967,-2613759.804616 338938.083804,-2613741.251950 338936.925067,-2613701.017910 338931.511032,-2613691.254121 338922.067583,-2613678.832529 338920.286667,-2613666.337363 338922.762571,-2613642.908368 338917.151201,-2613630.987122 338899.504616,-2613618.667242 338876.396974,-2613608.035763 338855.016180,-2613605.004891 338828.737431,-2613604.752658 338807.957485,-2613607.153079 338788.878670,-2613613.898306 338766.582548,-2613627.756115"/>
    <poly id="167131020" type="building" color="255,230,230" fill="1" layer="-1.00" shape="339447.956308,-2612470.581545 339442.533980,-2612500.864997 339446.180128,-2612507.624940 339458.298430,-2612514.568521 339491.159159,-2612515.558076 339491.471413,-2612495.708179 339572.763446,-2612495.622447 339574.056141,-2612463.767520 339492.764876,-2612463.011522 339492.857716,-2612471.449676 339447.956308,-2612470.581545"/>
    <poly id="167131020#1" type="shop" color="237,199,255" fill="1" layer="-1.00" shape="339447.956308,-2612470.581545 339442.533980,-2612500.864997 339446.180128,-2612507.624940 339458.298430,-2612514.568521 339491.159159,-2612515.558076 339491.471413,-2612495.708179 339572.763446,-2612495.622447 339574.056141,-2612463.767520 339492.764876,-2612463.011522 339492.857716,-2612471.449676 339447.956308,-2612470.581545"/>
    <poly id="167131042" type="building" color="255,230,230" fill="1" layer="-1.00" shape="339541.685902,-2612298.618280 339542.188166,-2612339.645739 339574.444294,-2612339.446055 339574.270426,-2612310.641820 339571.130768,-2612305.393556 339541.685902,-2612298.618280"/>
    <poly id="167131042#1" type="shop" color="237,199,255" fill="1" layer="-1.00" shape="339541.685902,-2612298.618280 339542.188166,-2612339.645739 339574.444294,-2612339.446055 339574.270426,-2612310.641820 339571.130768,-2612305.393556 339541.685902,-2612298.618280"/>
    <poly id="167131053" type="amenity" color="237,199,199" fill="1" layer="-1.00" shape="339484.469152,-2612281.306131 339440.411589,-2612282.056730 339439.655749,-2612264.378218 339443.210947,-2612263.796417 339443.501264,-2612215.063075 339482.925245,-2612215.183030 339486.534305,-2612219.495811 339487.151138,-2612275.561908 339484.469152,-2612281.306131"/>
    <poly id="167131053#1" type="building" color="255,230,230" fill="1" layer="-1.00" shape="339484.469152,-2612281.306131 339440.411589,-2612282.056730 339439.655749,-2612264.378218 339443.210947,-2612263.796417 339443.501264,-2612215.063075 339482.925245,-2612215.183030 339486.534305,-2612219.495811 339487.151138,-2612275.561908 339484.469152,-2612281.306131"/>
    <poly id="170264827" type="building" color="255,230,230" fill="1" layer="-1.00" shape="342439.060801,-2613628.431355 342464.033108,-2613616.433211 342486.787096,-2613663.565789 342496.508169,-2613658.532448 342526.164039,-2613710.773574 342520.100686,-2613714.349803 342541.037090,-2613751.944448 342514.697920,-2613763.968313 342488.924013,-2613716.857251 342481.929944,-2613720.233129 342462.301989,-2613684.761875 342469.996270,-2613680.082661 342439.060801,-2613628.431355"/>
    <poly id="170276939" type="shop" color="237,199,255" fill="1" layer="-1.00" shape="339714.422749,-2611985.079549 339710.568000,-2611983.482792 339705.935850,-2611985.438581 339702.207972,-2611994.461373 339695.597284,-2612016.041682 339695.953577,-2612023.391579 339724.781682,-2612055.735110 339731.624361,-2612056.202623 339731.962635,-2612061.913615 339738.653609,-2612072.726862 339756.076508,-2612089.679625 339783.376411,-2612008.897704 339714.422749,-2611985.079549"/>
    <poly id="170279677" type="amenity" color="237,199,199" fill="1" layer="-1.00" shape="339747.709447,-2611950.414613 339738.447644,-2611979.643622 339833.528443,-2612012.898928 339843.067265,-2611985.649375 339747.709447,-2611950.414613"/>
    <poly id="170279678" type="amenity" color="237,199,199" fill="1" layer="-1.00" shape="339608.119652,-2611977.265840 339600.145858,-2611998.307434 339659.250167,-2612021.070413 339667.490414,-2611999.195302 339608.119652,-2611977.265840"/>
    <poly id="170279678#1" type="building" color="255,230,230" fill="1" layer="-1.00" shape="339608.119652,-2611977.265840 339600.145858,-2611998.307434 339659.250167,-2612021.070413 339667.490414,-2611999.195302 339608.119652,-2611977.265840"/>
    <poly id="170279679" type="amenity" color="237,199,199" fill="1" layer="-1.00" shape="339627.920909,-2611885.601756 339605.843504,-2611943.811072 339677.882612,-2611974.405973 339681.687613,-2611964.972551 339702.133089,-2611914.256930 339627.920909,-2611885.601756"/>
    <poly id="170630802" type="amenity" color="237,199,199" fill="1" layer="-1.00" shape="340805.632996,-2612774.141229 340812.537906,-2612904.706220 340898.477022,-2612904.311195 340890.439556,-2612769.948782 340805.632996,-2612774.141229"/>
    <poly id="170634421" type="building" color="255,230,230" fill="1" layer="-1.00" shape="339714.550703,-2612679.437626 339714.161390,-2612698.801048 339777.190077,-2612700.057801 339777.579474,-2612680.694386 339762.299425,-2612680.386004 339754.092916,-2612680.221430 339714.550703,-2612679.437626"/>
    <poly id="175821610" type="leisure" color="207,245,201" fill="1" layer="-2.00" shape="339251.029098,-2614139.601742 339251.520775,-2614166.608414 339294.327466,-2614165.826342 339293.835869,-2614138.819673 339251.029098,-2614139.601742"/>
    <poly id="175821612" type="amenity" color="237,199,199" fill="1" layer="-1.00" shape="339096.034279,-2614289.529463 339134.696982,-2614368.178796 339180.981564,-2614395.975964 339202.786773,-2614290.522199 339224.746069,-2614172.175419 339104.265096,-2614093.210391 339099.669761,-2614098.433170 339096.034279,-2614289.529463"/>
    <poly id="175821613" type="leisure" color="207,245,201" fill="1" layer="-2.00" shape="339672.633829,-2615425.291382 339703.968339,-2615424.481454 339703.476673,-2615405.758932 339672.152323,-2615406.568747 339672.633829,-2615425.291382"/>
    <poly id="175821620" type="leisure" color="207,245,201" fill="1" layer="-2.00" shape="339870.694220,-2615720.578170 339936.978181,-2615722.153342 339939.286066,-2615626.694246 339873.001672,-2615625.119039 339870.694220,-2615720.578170"/>
    <poly id="182464102" type="forest" color="140,196,107" fill="1" layer="-4.00" shape="342922.744161,-2612339.093300 342895.787968,-2612377.481067 342879.839150,-2612421.199170 342846.347393,-2612462.935601 342813.701226,-2612481.793421 342754.779311,-2612499.849190 342732.729760,-2612485.933202 342750.977488,-2612451.991376 342763.439783,-2612439.885119 342765.722822,-2612423.525087 342779.023348,-2612412.495148 342776.482808,-2612392.654223 342803.421819,-2612365.961451 342886.118812,-2612343.840106 342808.738527,-2612351.750490 342729.385878,-2612379.273989 342692.290314,-2612390.560534 342662.894631,-2612406.127631 342648.942235,-2612432.403733 342641.478868,-2612450.990345 342630.729947,-2612469.612405 342645.187167,-2612490.144314 342664.021702,-2612510.629024 342696.950813,-2612518.978753 342704.907222,-2612546.114988 342713.110047,-2612596.107098 342726.588179,-2612647.947212 342741.518851,-2612691.598422 342773.930815,-2612753.312586 342813.424291,-2612780.917426 342823.568340,-2612787.608081 342828.262293,-2612816.950196 342846.832027,-2612832.808663 342857.495279,-2612834.654028 342891.734678,-2612814.095708 342923.471282,-2612833.079534 342935.669862,-2612827.776211 342956.357373,-2612816.666869 342973.817952,-2612811.030054 342989.073130,-2612804.331665 342998.767085,-2612790.073650 343008.483063,-2612776.911816 343009.211556,-2612743.147813 342995.700056,-2612728.873778 342976.460478,-2612752.216258 342954.714663,-2612765.507630 342929.544395,-2612766.875063 342916.623539,-2612786.605636 342894.527697,-2612768.337516 342887.504935,-2612746.363107 342884.986728,-2612721.948010 342884.299187,-2612531.157710 342886.478287,-2612504.189107 342916.618773,-2612380.568138 342922.744161,-2612339.093300"/>
    <poly id="182700271" type="parking" color="184,184,179" fill="1" layer="-1.00" shape="342641.055169,-2612818.481370 342820.703513,-2612779.332802 342831.766923,-2612838.198325 342667.559681,-2612941.757838 342641.055169,-2612818.481370"/>
    <poly id="186407515" type="parking" color="184,184,179" fill="1" layer="-1.00" shape="340305.402078,-2611885.237458 340282.946998,-2611884.940552 340274.643318,-2611876.869179 340189.889348,-2611885.416750 340180.139469,-2611895.324901 340180.556820,-2611933.429372 340190.533225,-2611944.206821 340308.790976,-2611940.320565 340305.402078,-2611885.237458"/>
    <poly id="186407526" type="parking" color="184,184,179" fill="1" layer="-1.00" shape="340301.141188,-2611696.389185 340311.588158,-2611850.881610 340315.868585,-2611941.738231 340358.526977,-2611938.015410 340344.136786,-2611717.825035 340321.866034,-2611689.628159 340304.354384,-2611685.057541 340301.141188,-2611696.389185"/>
    <poly id="195909852" type="industrial" color="209,209,204" fill="1" layer="-3.00" shape="342500.317954,-2612166.726503 342554.561349,-2612156.649878 342566.223229,-2612155.471923 342592.648051,-2612145.429851 342632.369132,-2612138.134951 342703.120486,-2612124.846337 342708.640967,-2612123.856533 342712.383595,-2612126.452003 342741.507040,-2612120.600641 342772.729260,-2612137.153313 342801.977736,-2612142.907176 342914.263500,-2612122.959159 342946.068601,-2612292.272427 342550.999552,-2612367.498526 342543.046382,-2612368.115957 342522.646008,-2612272.560631 342523.402101,-2612268.864536 342539.254530,-2612262.624404 342534.750633,-2612238.662688 342516.656135,-2612233.841075 342513.173057,-2612230.711259 342500.317954,-2612166.726503"/>
    <poly id="196204884" type="industrial" color="209,209,204" fill="1" layer="-3.00" shape="342507.402668,-2612135.751126 342496.544769,-2612149.014211 342500.317954,-2612166.726503 342554.561349,-2612156.649878 342566.223229,-2612155.471923 342592.648051,-2612145.429851 342632.369132,-2612138.134951 342703.120486,-2612124.846337 342708.640967,-2612123.856533 342712.383595,-2612126.452003 342741.507040,-2612120.600641 342772.729260,-2612137.153313 342801.977736,-2612142.907176 342914.263500,-2612122.959159 342909.809363,-2612099.772074 342896.566740,-2612032.812126 342893.590765,-2612015.168705 342595.369393,-2611819.688649 342452.182971,-2612017.613553 342466.457208,-2612045.711436 342477.461274,-2612072.449201 342485.245120,-2612103.396965 342503.083866,-2612115.707925 342517.961607,-2612113.697829 342520.033903,-2612132.668869 342507.402668,-2612135.751126"/>
    <poly id="196861700" type="building" color="255,230,230" fill="1" layer="-1.00" shape="342514.489667,-2611900.754448 342470.008590,-2611966.310547 342429.435834,-2611939.194345 342473.911646,-2611874.103320 342514.489667,-2611900.754448"/>
    <poly id="196861701" type="building" color="255,230,230" fill="1" layer="-1.00" shape="342637.091853,-2612144.551735 342643.018226,-2612175.519595 342712.991169,-2612163.878491 342707.541844,-2612133.603187 342637.091853,-2612144.551735"/>
    <poly id="196861702" type="building" color="255,230,230" fill="1" layer="-1.00" shape="342480.309522,-2611862.682510 342521.117069,-2611889.796324 342539.015497,-2611865.061260 342498.422372,-2611837.014791 342480.309522,-2611862.682510"/>
    <poly id="196861703" type="building" color="255,230,230" fill="1" layer="-1.00" shape="342589.034446,-2611887.092168 342603.936046,-2611896.732678 342622.489197,-2611870.240834 342607.190582,-2611860.693186 342589.034446,-2611887.092168"/>
    <poly id="196861704" type="building" color="255,230,230" fill="1" layer="-1.00" shape="342616.682122,-2611961.992275 342575.178823,-2612022.642979 342540.699819,-2611999.392324 342533.825054,-2612010.120540 342485.266819,-2611976.844151 342535.511486,-2611907.283248 342616.682122,-2611961.992275"/>
    <poly id="196861706" type="building" color="255,230,230" fill="1" layer="-1.00" shape="342512.387977,-2612175.943405 342514.119327,-2612185.072562 342552.814032,-2612177.245846 342549.356397,-2612159.452616 342542.036066,-2612161.037799 342544.111820,-2612169.930669 342512.387977,-2612175.943405"/>
    <poly id="196861707" type="building" color="255,230,230" fill="1" layer="-1.00" shape="342394.735192,-2611783.025745 342349.825227,-2611850.436349 342379.884494,-2611895.274970 342442.253577,-2611804.983515 342422.547218,-2611791.762484 342423.211085,-2611788.975522 342406.096223,-2611777.587104 342399.890201,-2611785.982435 342394.735192,-2611783.025745"/>
    <poly id="196861708" type="building" color="255,230,230" fill="1" layer="-1.00" shape="342624.780843,-2611873.605027 342607.437129,-2611898.688389 342628.493564,-2611912.216261 342612.420535,-2611933.996682 342633.980497,-2611947.851373 342664.306608,-2611903.966906 342662.142505,-2611902.018915 342663.114745,-2611900.380427 342624.780843,-2611873.605027"/>
    <poly id="196861709" type="building" color="255,230,230" fill="1" layer="-1.00" shape="342538.038889,-2612023.276311 342482.672781,-2611986.119673 342462.288493,-2612017.836687 342475.896338,-2612048.488994 342490.265000,-2612041.855073 342480.251905,-2612020.887685 342488.736790,-2612008.059983 342529.791174,-2612036.333995 342538.038889,-2612023.276311"/>
    <poly id="196866078" type="leisure" color="207,245,201" fill="1" layer="-2.00" shape="340867.928192,-2614019.252178 340888.998130,-2614022.898447 340916.698761,-2614035.731072 340935.174010,-2614065.299023 340948.545153,-2614064.743360 340952.514168,-2614086.229818 340962.766273,-2614128.069993 340954.682329,-2614178.338925 340946.403576,-2614189.238434 340920.475051,-2614214.406849 340912.845762,-2614221.234774 340900.922450,-2614223.546675 340899.558812,-2614228.556376 340870.829515,-2614229.888865 340874.601174,-2614224.875024 340865.543945,-2614224.276172 340864.997823,-2614227.527105 340857.367326,-2614227.699007 340859.329607,-2614220.512068 340845.883599,-2614215.132447 340838.786989,-2614206.261340 340804.218062,-2614062.486774 340813.075743,-2614047.604942 340833.327606,-2614032.399362 340853.650712,-2614023.716200 340867.928192,-2614019.252178"/>
    <poly id="196866078#1" type="sport" color="79,230,125" fill="1" layer="-2.00" shape="340867.928192,-2614019.252178 340888.998130,-2614022.898447 340916.698761,-2614035.731072 340935.174010,-2614065.299023 340948.545153,-2614064.743360 340952.514168,-2614086.229818 340962.766273,-2614128.069993 340954.682329,-2614178.338925 340946.403576,-2614189.238434 340920.475051,-2614214.406849 340912.845762,-2614221.234774 340900.922450,-2614223.546675 340899.558812,-2614228.556376 340870.829515,-2614229.888865 340874.601174,-2614224.875024 340865.543945,-2614224.276172 340864.997823,-2614227.527105 340857.367326,-2614227.699007 340859.329607,-2614220.512068 340845.883599,-2614215.132447 340838.786989,-2614206.261340 340804.218062,-2614062.486774 340813.075743,-2614047.604942 340833.327606,-2614032.399362 340853.650712,-2614023.716200 340867.928192,-2614019.252178"/>
    <poly id="196900382" type="landuse" color="194,194,130" fill="1" layer="-3.00" shape="342543.046382,-2612368.115957 342641.055169,-2612818.481370 342813.424291,-2612780.917426 342823.568340,-2612787.608081 342828.262293,-2612816.950196 342831.766923,-2612838.198325 342837.258676,-2612835.514406 342891.734678,-2612814.095708 342923.471282,-2612833.079534 342935.669862,-2612827.776211 342956.357373,-2612816.666869 342973.817952,-2612811.030054 342989.073130,-2612804.331665 342998.767085,-2612790.073650 343008.483063,-2612776.911816 343019.206649,-2612774.880452 343017.673742,-2612754.762861 343020.103228,-2612734.923797 343020.774607,-2612724.295786 342984.928351,-2612725.490070 342984.982159,-2612731.436690 342911.077039,-2612731.147089 342911.263514,-2612721.930796 342884.986728,-2612721.948010 342884.955470,-2612668.833309 342884.299187,-2612531.157710 342886.478287,-2612504.189107 342916.618773,-2612380.568138 342999.811396,-2612353.292301 342999.946059,-2612365.805434 343022.391361,-2612365.298104 343022.072173,-2612351.756997 343022.170256,-2612345.697998 343024.107881,-2612342.731239 343028.043931,-2612340.551442 343032.647599,-2612340.668031 343036.624278,-2612342.264323 343038.970827,-2612346.004525 343039.840023,-2612350.912407 343040.873746,-2612354.987904 343041.233078,-2612361.828295 343085.834889,-2612360.528959 343085.694345,-2612347.462151 343087.683475,-2612347.385382 343132.771531,-2612345.748717 343134.281205,-2612345.688185 343182.919204,-2612343.924906 343192.120340,-2612343.582358 343202.249895,-2612343.218763 343202.710997,-2612372.827933 343202.817661,-2612379.903610 343202.844051,-2612381.409505 343203.544043,-2612426.598411 343203.568529,-2612427.927129 343204.193846,-2612468.066711 343204.268527,-2612473.116037 343204.293013,-2612474.444755 343204.916076,-2612514.373942 343205.932354,-2612533.921191 343206.651183,-2612622.634040 343206.721951,-2612631.116610 343193.852340,-2612630.978078 343194.168494,-2612636.656075 343193.401971,-2612641.293600 343189.905636,-2612645.451028 343186.107092,-2612649.024739 343177.633932,-2612649.669572 343163.675536,-2612649.819644 343163.789193,-2612662.288700 343163.270755,-2612663.423909 343158.617961,-2612663.473936 343141.371194,-2612663.393591 343136.174637,-2612663.172602 343136.229848,-2612670.204537 343136.279625,-2612674.833288 343135.501452,-2612678.385608 343132.812609,-2612681.714829 343128.999560,-2612683.937581 343126.824827,-2612684.780508 343126.938916,-2612695.388987 343089.438165,-2612695.515468 343088.873709,-2612718.933776 343080.434226,-2612723.653853 343068.399984,-2612724.325988 343040.761677,-2612724.889163 343037.505623,-2612740.938441 343036.323734,-2612749.644920 343035.238758,-2612757.874138 343035.048826,-2612765.827928 343057.233454,-2612752.531959 343065.629912,-2612746.660545 343073.033630,-2612742.416746 343087.374027,-2612737.943280 343141.757720,-2612702.184630 343155.224542,-2612693.334989 343190.742358,-2612672.974100 343200.887757,-2612667.460515 343229.119462,-2612658.485467 343248.112389,-2612649.177834 343264.865114,-2612645.066249 343276.012287,-2612639.708078 343277.293323,-2612636.416162 343285.474853,-2612631.422108 343301.972188,-2612628.232523 343321.504970,-2612625.475497 343338.763564,-2612627.604775 343367.205312,-2612619.170417 343403.746150,-2612585.697566 343406.312232,-2612586.135162 343417.596475,-2612661.034956 343422.817997,-2612670.237468 343443.404589,-2612657.280444 343468.347524,-2612637.565356 343485.214910,-2612625.113452 343504.198874,-2612614.953501 343524.635388,-2612609.872415 343543.242190,-2612607.358195 343566.384576,-2612604.330215 343601.024657,-2612598.166642 343632.641559,-2612593.663559 343652.843454,-2612588.585173 343595.170019,-2612573.687604 343534.146866,-2612550.951982 343494.599534,-2612535.362017 343492.910941,-2612500.671621 343482.271828,-2612430.704253 343446.096346,-2612367.999121 343429.180170,-2612361.668662 343409.138876,-2612353.212173 343389.616184,-2612339.832917 343374.111009,-2612327.108268 343350.235761,-2612308.493094 343321.382781,-2612293.896204 343290.588265,-2612278.113065 343259.030573,-2612259.691299 343234.257008,-2612244.873545 343169.445945,-2612196.519622 343130.786653,-2612175.383591 343111.966084,-2612164.710464 343061.282177,-2612134.766513 343032.473730,-2612103.502031 342994.185152,-2612077.976707 342896.997019,-2612011.167232 342893.590765,-2612015.168705 342896.566740,-2612032.812126 342909.809363,-2612099.772074 342914.263500,-2612122.959159 342946.068601,-2612292.272427 342550.999552,-2612367.498526 342543.046382,-2612368.115957"/>