<?xml version="1.0" encoding="UTF-8"?>
<!-- generated on 2020-11-22 16:16:48.511436 by $Id: ptlines2flows.py v1_3_1+0313-ccb31df3eb jakob.erdmann@dlr.de 2019-09-02 13:26:32 +0200 $ v1_7_0+0890-63ce6de543
  options: -n saopaulo.net.xml -s busstops.xml -l ptlines.xml -o buslines.rou.xml -p 600 <doubleminus>use-osm-routes
-->
<routes xmlns:xsi="http://www.w3.org/2001/XMLSchema-instance" xsi:noNamespaceSchemaLocation="http://sumo.dlr.de/xsd/routes_file.xsd">
    <vType id="bus" vClass="bus"/>
    <vType id="tram" vClass="tram"/>
    <vType id="train" vClass="rail"/>
    <vType id="subway" vClass="rail_urban"/>
    <vType id="light_rail" vClass="rail_urban"/>
    <vType id="monorail" vClass="rail"/>
    <vType id="trolleybus" vClass="bus"/>
    <vType id="aerialway" vClass="bus"/>
    <vType id="ferry" vClass="ship"/>
    <trip id="1_bus_T25:0" type="bus" depart="0" departLane="best" from="93997238#0" to="-237521935#0" via="93997238#1 93997238#2 93997238#3 93997238#4 93997238#5 93997238#6 93997238#7 -237521935#4 -237521935#3 -237521935#2 -237521935#1">
        <stop busStop="6992430971" duration="30"/>
        <stop busStop="6992430973" duration="30"/>
        <stop busStop="6992430974" duration="30"/>
        <stop busStop="-6992430975" duration="30"/>
    </trip>
    <trip id="2_train_10:0" type="train" depart="0" departLane="best" from="218651915" to="218801092#2" via="218801092#0 218801092#1">
        <stop busStop="2278811014" duration="30"/>
        <stop busStop="2280117742" duration="30"/>
        <stop busStop="2281353272" duration="30"/>
    </trip>
    <trip id="3_bus_B19:0" type="bus" depart="0" departLane="best" from="758913936#0" to="-726839600#0" via="758913936#1 758913934#0 758913934#1 758913934#2 758913934#3 313159264#0 313159264#1 313159264#2 313159264#3 94016889 432967930#0 432967930#1 94003572#0 94003572#1 94003572#2 94003572#3 94003572#4 94003572#5 94012417#0 94012417#1 94012417#2 94012417#3 94012417#4 94012417#5 94012417#6 94012417#7 94012417#8 94012417#9 726839598 -726839600#1">
        <stop busStop="5616176792" duration="30"/>
        <stop busStop="6465699087" duration="30"/>
    </trip>
    <trip id="4_train_10:1" type="train" depart="0" departLane="best" from="27017560" to="218801097#2" via="218801097#0 218801097#1">
        <stop busStop="656349268" duration="30"/>
        <stop busStop="656351141" duration="30"/>
        <stop busStop="2278811013" duration="30"/>
        <stop busStop="656353782" duration="30"/>
    </trip>
</routes>
